# ------------------------------------------------------------------------------------------
# Impression du contenu du fichier de commandes à exécuter :
# ------------------------------------------------------------------------------------------
#########################################
###  CODE_ASTER INPUT FILE             ##
#########################################


import numpy as np
import scipy.io as sio
from math import *

DEBUT(PAR_LOT='NON')
      

# The only parameters to change in the body of this file are highlighted by #**(i) i=1:8


# ENTER THE ABSOLUTE PATH WHERE YOU WANT TO SAVE 
# THE .mat FILE WITH REDUCED SYSTEM TENSORS			#**(1)
output_filename='/home/av3116/Downloads/CodeBetaTestCons/QM_SMD/astk/mapping_and_red_dyn.mat'

# Tolerances for linear solver 					#**(2)
tol_quad=1.E-5
tol_cubic=1.E-5
tol_cubic_ir=2.E-5


#######################################################
########	Parameters of the ROM		#######
#######################################################


Master_Modes=[3,7,11]						#**(3) master modes you want to study (from smaller to higher)
q=[0.02]*3							#**(4) amplitude of imposed displacement for each mode
int_res=np.array([						#**(5) add nontrivial third order int res: +-w_i +-w_j +-w_k = +-w_p
		[1,1,1,2],
		#[1,1,1,3],
		#[1,1,2,3],
		])						

# Example:
# if one wants to study Master_Modes [1,2,5]
# and there is an internal resonance in the form:
# w_1 + w_2 + w_2 = w_5
# then the row of int_res must be:
# [1,2,2,3]
# because the fifth mode is the number 3 in Master_Modes!


#######################################################
####		Model Setup			#######
#######################################################

mesh = LIRE_MAILLAGE(FORMAT='MED',
	UNITE=20);						#**(6) number of mesh input in astk


model = AFFE_MODELE(
	AFFE=_F(MODELISATION=('3D', ),
	PHENOMENE='MECANIQUE',TOUT='OUI'),
	MAILLAGE=mesh);



mater = DEFI_MATERIAU(ELAS=_F(					#**(7) material properties
	E=210e+09,
	NU=0.3,
	RHO=8750));

fieldmat = AFFE_MATERIAU(
	AFFE=_F(MATER=(mater, ),TOUT='OUI'),
	MODELE=model);



#######################################################
####		Matrix Assembling		#######
#######################################################

BC = AFFE_CHAR_MECA(DDL_IMPO=(_F(DX=0.0,DY=0.0,DZ=0.0,GROUP_MA=('clamped_faces')),
					),MODELE=model);


ASSEMBLAGE(MODELE=model,
	CHARGE=BC,
	CHAM_MATER=fieldmat,
	NUME_DDL=CO('nddl'),
	MATR_ASSE=(
		_F(MATRICE=CO("K"),OPTION='RIGI_MECA'),
		_F(MATRICE=CO("M"),OPTION='MASS_MECA'),
	))



#######################################################
####		Dummy Fields			#######
#######################################################

# initial dummy displacement
U = CREA_CHAMP(AFFE=_F(NOM_CMP=('DX', 'DY', 'DZ'),TOUT='OUI',VALE=(0.0, 0.0, 0.0)),
	MAILLAGE=mesh,
	OPERATION='AFFE',
	TYPE_CHAM='NOEU_DEPL_R');

# initial dummy stress
SIGP = CREA_CHAMP(AFFE=_F(NOM_CMP=('SIXX', 'SIYY', 'SIZZ', 'SIXY', 'SIYZ', 'SIXZ'),
	TOUT='OUI',VALE=(0.0, 0.0, 0.0, 0.0, 0.0, 0.0)),
	MODELE=model,
	OPERATION='AFFE',
	TYPE_CHAM='ELGA_SIEF_R');

# initial dummy stress variation
VARIP = CREA_CHAMP(AFFE=_F(NOM_CMP=('V1', ),TOUT='OUI',VALE=(0.0, )),
	MODELE=model,
	OPERATION='AFFE',
	TYPE_CHAM='ELGA_VARI_R');

RAMPE=DEFI_FONCTION(NOM_PARA='INST',
	VALE=(0.0,0.0,1.0,1.0,),
	PROL_DROITE='LINEAIRE',
	PROL_GAUCHE='LINEAIRE',);

LIST=DEFI_LIST_REEL(DEBUT=0.0,
	INTERVALLE=_F(JUSQU_A=1.0,
	NOMBRE=1,),);



#######################################################
####		Functions to extract Forces	#######
#######################################################

def COMPUTE_F(DU,F,p,deformation_type,dof_handler=nddl):
	
	# CALCUL performs a static analysis: input DU, output nodal forces
	# deformation_type: 'GROT_GDEP' for nonlinear behaviour, 'PETIT' for linear
	# dof organised by default as nddl from standard assemblage
	# F_TABLE is a concept de type : table_container
	F_TABLE = CALCUL(CHAM_MATER=fieldmat,COMPORTEMENT=_F(DEFORMATION=deformation_type,RELATION='ELAS'),
		DEPL=U,
		EXCIT=_F(CHARGE=BC),
		INCREMENT=_F(LIST_INST=LIST,NUME_ORDRE=1),
		INCR_DEPL=DU,
		INFO=1,
		MODELE=model,
		OPTION=('COMPORTEMENT', 'FORC_INTE_ELEM', 'MATR_TANG_ELEM', 'FORC_NODA_ELEM'),
		SIGM=SIGP,
		VARI=VARIP);
	
	# EXTR_TABLE extract the results from the table F_TABLE
	# F_EXTR is a concept de type : vect_elem_depl_r
	F_EXTR = EXTR_TABLE(FILTRE=_F(NOM_PARA='NOM_OBJET',
		VALE_K='FORC_NODA_ELEM'),
		NOM_PARA='NOM_SD',
		TABLE=F_TABLE,
		TYPE_RESU='VECT_ELEM_DEPL_R');
	
	# ASSE_VECTEUR assemble the nodal forces to a champ
	# F[p] is a concept de type : cham_no_sdaster
	F[p]=ASSE_VECTEUR(NUME_DDL=nddl,VECT_ELEM=F_EXTR);
	
	DETRUIRE(CONCEPT = _F (NOM = F_TABLE))
	DETRUIRE(CONCEPT = _F (NOM =F_EXTR))



def EXTRACT_F_NL(DU,F_NL,case):
	
	Fg=dict()
	
	# call linear forces due to DU
	# Fg['lin']=
	COMPUTE_F(DU,Fg,'lin','PETIT')
	
	# call total (lin+nlin) forces due to DU
	# Fg['tot']=
	COMPUTE_F(DU,Fg,'tot','GROT_GDEP')
	
	# subtract linear to total
	F_NL[case]=CREA_CHAMP(COMB=(
		_F(CHAM_GD=Fg['lin'],COEF_R=-1),
		_F(CHAM_GD=Fg['tot'],COEF_R=1)),
		OPERATION='COMB',TYPE_CHAM='NOEU_DEPL_R')
	
	DETRUIRE(CONCEPT = _F (NOM = DU))
	DETRUIRE(CONCEPT = _F (NOM = Fg['lin']))
	DETRUIRE(CONCEPT = _F (NOM = Fg['tot']))





#######################################################
########	Extract Modes and Frequencies	#######
#######################################################


N_modes=len(Master_Modes)

EigenModes = [None]*(N_modes)			# eigenvectors in python format
MdotEigenModes = [None]*(N_modes)		# mass matrix dot eigenvectors in python format
PHI=[None]*(N_modes)				# eigenvectors in code_aster format
MPHI=[None]*(N_modes)				# mass matrix dot eigenvectors in code_aster format
CSTR=[None]*(N_modes)				# char meca that will be later used as a constraint

modes = CALC_MODES(CALC_FREQ=_F(NMAX_FREQ=Master_Modes[-1]),
	MATR_MASS=M,
	MATR_RIGI=K,
	NORM_MODE=_F(NORME='MASS_GENE'),
	OPTION='PLUS_PETITE',
	TYPE_RESU='DYNAMIQUE',
	VERI_MODE=_F(STOP_ERREUR='NON',SEUIL=1.E-5))
 
               
# extrating natural frequencies of the master modes only
TFREQ=RECU_TABLE(CO=modes,NOM_PARA='FREQ');

t_freq = TFREQ.EXTR_TABLE().Array('NUME_ORDRE','FREQ')

"""
# If one wants to check for possible internal resonances before running the script
print('check int res')
print(np.array(t_freq)/t_freq[2])
FIN(INFO_RESU='NON')
"""

omega=np.zeros([N_modes,])
for i in range(N_modes):
	omega[i] = 2*pi*t_freq[Master_Modes[i]-1][1]


# extracting FM
for i in range(N_modes):
	# extract selected internal modes and store them on FM
	PHI[i] = CREA_CHAMP(NOM_CHAM='DEPL',
		NUME_MODE=Master_Modes[i],
		OPERATION='EXTR',
		RESULTAT=modes,
		TYPE_CHAM='NOEU_DEPL_R')
	
	MPHI[i] = PROD_MATR_CHAM(MATR_ASSE=M, CHAM_NO=PHI[i],);
	CSTR[i] = AFFE_CHAR_MECA(MODELE=model,INFO=1,
		LIAISON_CHAMNO=_F(
			CHAM_NO=MPHI[i],COEF_IMPO = 0.0) ,);
	EigenModes[i]=PHI[i].EXTR_COMP(topo=1).valeurs
	MdotEigenModes[i]=MPHI[i].EXTR_COMP(topo=1).valeurs



N_dofs=len(EigenModes[0])


"""
### saves the MODE tangent vector as .rmed for visualisation in ParaVis
RESU = CREA_RESU (OPERATION='AFFE',TYPE_RESU= 'MULT_ELAS', NOM_CHAM='DEPL',AFFE=(
	_F( CHAM_GD= PHI[0], NOM_CAS= 'CAS1'),),);

for i in range(1,N_modes):
	RESU = CREA_RESU (reuse = RESU,OPERATION='AFFE',TYPE_RESU= 'MULT_ELAS', NOM_CHAM='DEPL',AFFE=(
			_F( CHAM_GD= PHI[i], NOM_CAS= 'CAS1'),),);

IMPR_RESU(FORMAT='MED',RESU=_F(INFO_MAILLAGE='OUI',RESULTAT=RESU,NOM_CHAM=('DEPL')),UNITE=81)

FIN()
"""
###############################################################################
########	Extract G(Vi,Vj) and H(phi_i,phi_j,phi_k)	#######
########	from nonlinear forces computations as in Step method	#######
###############################################################################

#	Each DU imposed displacement is a linear combination of modes (FM)
#	by their selected modal amplitudes q

#	DU_i = Vi * Ai
#	DU_j = Vj * AMPq[j]
#	DU_k = Vk * Ak
#	DU = +- DU_i +- DU_j +- DU_k

#	The +- sign are the parameter to play with to extract the desired G and H component

#########################################
#	First Loop of Step method:	#
#########################################

#	G(Vi,Vi)		= G[i,i] 	= (  F_NL(+DU_i) + F_NL(-DU_i)  )/(2 Ai**2)

#	H(Vi,Vi,Vi)		= H[i,i,i]	= (  F_NL(+DU_i) - F_NL(-DU_i)  )/(2 Ai**3)


def Combination_i(current,quadratic,*cubic):
	
	(Vi,Ai)=current
	
	F_NL=dict()
	DU=dict()
	
	# create displacement DU['p'] = +DU_i
	DU['p'] = CREA_CHAMP(COMB=(
		_F(CHAM_GD=	Vi,		COEF_R=+Ai),
		),
		INFO=1,OPERATION='COMB',TYPE_CHAM='NOEU_DEPL_R')
	
	# create displacement DU['m'] = -DU_i
	DU['m'] = CREA_CHAMP(COMB=(
		_F(CHAM_GD=	Vi,		COEF_R=-Ai),
		),	
		INFO=1,OPERATION='COMB',TYPE_CHAM='NOEU_DEPL_R')
	
	# Extract the nonlinear forces generated by +DU_i
	EXTRACT_F_NL(DU['p'],F_NL,'p')
	
	# Extract the nonlinear forces generated by -DU_i
	EXTRACT_F_NL(DU['m'],F_NL,'m')
	
	
	G=quadratic[0]
	IdG=quadratic[1]
	# Isolate quadratic part
	G[IdG]=CREA_CHAMP(COMB=(
		_F(CHAM_GD=	F_NL['p'],	COEF_R=	+1/(2.0*Ai**2)),
		_F(CHAM_GD=	F_NL['m'],	COEF_R=	+1/(2.0*Ai**2)),
		),
		OPERATION='COMB',TYPE_CHAM='NOEU_DEPL_R')
	
	
	if len(cubic)>0:
		
		H=cubic[0]
		IdH=cubic[1]		
		# Isolate cubic part
		H[IdH]=CREA_CHAMP(COMB=(
			_F(CHAM_GD=	F_NL['p'],	COEF_R=+1/(2.0*Ai**3)),
			_F(CHAM_GD=	F_NL['m'],	COEF_R=-1/(2.0*Ai**3)),
			),
			OPERATION='COMB',TYPE_CHAM='NOEU_DEPL_R')
	
	DETRUIRE(CONCEPT = _F (NOM = F_NL['p']))
	DETRUIRE(CONCEPT = _F (NOM = F_NL['m']))


#########################################
#	Second Loop			#
#########################################

#	G(Vi,Vj)		= G[i,j] 	= (  F_NL(+DU_i+DU_j) + F_NL(-DU_i-DU_j)  )/(4 Ai Aj)	
#							- (  G[i,i] Ai**2 + G[j,j] Aj**2  )/(2 Ai Aj)

#	H(Vi,Vi,Vj)	= H[i,i,j]	= ( -F_NL(+DU_i-DU_j) - F_NL(-DU_i-DU_j)  )/(6 Ai**2 Aj)
#							+ (  G[i,i] Ai**2 + G[j,j] Aj**2  )/(3 Ai**2 Aj)
#							- (  H[j,j,j] Aj**3 )/(3 Ai**2 Aj)

#	H(Vi,Vj,Vj)	= H[i,j,j]	= ( +F_NL(+DU_i-DU_j) + F_NL(+DU_i+DU_j)  )/(6 Ai Aj**2)
#							- (  G[i,i] Ai**2 + G[j,j] Aj**2  )/(3 Ai Aj**2)
#							- (  H[i,i,i] Aj**2 )/(3 Ai Aj**2)


def Combination_ij(current,previous,quadratic,*cubic):
	
	(Vi,Ai,Vj,Aj)=current
	(Gii,Gjj,Hiii,Hjjj)=previous
	
	F_NL=dict()
	DU=dict()
	
	# create displacement DU['pp'] = +DU_i+DU_j
	DU['pp'] = CREA_CHAMP(COMB=(
		_F(CHAM_GD=	Vi,		COEF_R=+Ai),
		_F(CHAM_GD=	Vj,		COEF_R=+Aj),
		),
		INFO=1,OPERATION='COMB',TYPE_CHAM='NOEU_DEPL_R')
	
	# create displacement DU['mm'] = -DU_i-DU_j
	DU['mm'] = CREA_CHAMP(COMB=(
		_F(CHAM_GD=	Vi,		COEF_R=-Ai),
		_F(CHAM_GD=	Vj,		COEF_R=-Aj),
		),
		INFO=1,OPERATION='COMB',TYPE_CHAM='NOEU_DEPL_R')
	
	# create displacement DU['pm'] = +DU_i-DU_j
	DU['pm'] = CREA_CHAMP(COMB=(
		_F(CHAM_GD=	Vi,		COEF_R=+Ai),
		_F(CHAM_GD=	Vj,		COEF_R=-Aj),
		),
		INFO=1,OPERATION='COMB',TYPE_CHAM='NOEU_DEPL_R')
	
	# Extract the nonlinear forces generated by +DU_i+DU_j
	EXTRACT_F_NL(DU['pp'],F_NL,'pp')
	
	# Extract the nonlinear forces generated by -DU_i-DU_j
	EXTRACT_F_NL(DU['mm'],F_NL,'mm')
	
	# Extract the nonlinear forces generated by +DU_i-DU_j
	EXTRACT_F_NL(DU['pm'],F_NL,'pm')
	
	G=quadratic[0]
	IdG=quadratic[1]
	# Isolate quadratic part
	G[IdG]=CREA_CHAMP(COMB=(
		_F(CHAM_GD=	F_NL['pp'],	COEF_R=+1/(4.0*Ai*Aj)),
		_F(CHAM_GD=	F_NL['mm'],	COEF_R=+1/(4.0*Ai*Aj)),
		_F(CHAM_GD=	   Gii,		COEF_R=-Ai**2/(2.0*Ai*Aj)),
		_F(CHAM_GD=	   Gjj,		COEF_R=-Aj**2/(2.0*Ai*Aj)),
		),
		OPERATION='COMB',TYPE_CHAM='NOEU_DEPL_R')
	
	if len(cubic)>0:
		
		H=cubic[0]
		IdH1=cubic[1]
		IdH2=cubic[2]
		# Isolate cubic part iij
		H[IdH1]=CREA_CHAMP(COMB=(
			_F(CHAM_GD=	F_NL['pm'],		COEF_R=-1/(6.0*Ai**2*Aj)),
			_F(CHAM_GD=	F_NL['mm'],		COEF_R=-1/(6.0*Ai**2*Aj)),
			_F(CHAM_GD=	Gii,			COEF_R=+Ai**2/(3.0*Ai**2*Aj)),
			_F(CHAM_GD=	Gjj,			COEF_R=+Aj**2/(3.0*Ai**2*Aj)),
			_F(CHAM_GD=	Hjjj,			COEF_R=-Aj**3/(3.0*Ai**2*Aj)),
			),
			OPERATION='COMB',TYPE_CHAM='NOEU_DEPL_R')
	
		# Isolate cubic part ijj
		H[IdH2]=CREA_CHAMP(COMB=(
			_F(CHAM_GD=	F_NL['pp'],		COEF_R=+1/(6.0*Ai*Aj**2)),
			_F(CHAM_GD=	F_NL['pm'],		COEF_R=+1/(6.0*Ai*Aj**2)),
			_F(CHAM_GD=	Gii,			COEF_R=-Ai**2/(3.0*Ai*Aj**2)),
			_F(CHAM_GD=	Gjj,			COEF_R=-Aj**2/(3.0*Ai*Aj**2)),
			_F(CHAM_GD=	Hiii,			COEF_R=-Ai**3/(3.0*Ai*Aj**2)),
			),
			OPERATION='COMB',TYPE_CHAM='NOEU_DEPL_R')
	
	DETRUIRE(CONCEPT = _F (NOM = F_NL['pp']))
	DETRUIRE(CONCEPT = _F (NOM = F_NL['mm']))
	DETRUIRE(CONCEPT = _F (NOM = F_NL['pm']))




#########################################
#	Third Loop			#
#########################################

#  H(Vi,Vj,Vk)	= H[i,j,k] = ( +F_NL(+DU_i+DU_j+DU_k) )/(6 Ai Aj Ak)
#					- (  G[i,i] Ai**2 + G[j,j] Aj**2  + G[k,k] Ak**2  )/(6 Ai Aj Ak)
#					- (  G[i,j] Ai Aj + G[j,k] Aj Ak  + G[i,k] Ak Ai  )/(3 Ai Aj Ak)
#					- ( H[i,i,i] Ai**3 + H[j,j,j] Aj**3 + H[k,k,k] Ak**3 )/(6 Ai Aj Ak)
#					- ( H[i,i,j] Ai**2 Aj + H[i,j,j] Ai Aj**2 )/(2 Ai Aj Ak)
#					- ( H[j,j,k] Aj**2 Ak + H[j,k,k] Aj Ak**2 )/(2 Ai Aj Ak)
#					- ( H[i,i,k] Ai**2 Ak + H[i,k,k] Ai Ak**2 )/(2 Ai Aj Ak)


def Combination_ijk(current,previous,cubic):
	
	(Vi,Ai,Vj,Aj,Vk,Ak)=current
	(Gii,Gjj,Gkk,Gij,Gjk,Gik,Hiii,Hjjj,Hkkk,Hiij,Hjjk,Hiik,Hijj,Hjkk,Hikk)=previous
	
	
	F_NL=dict()
	DU=dict()
	
	# create displacement DU['pp'] = +DU_i+DU_j+DU_k
	DU['ppp'] = CREA_CHAMP(COMB=(
		_F(CHAM_GD=	Vi,		COEF_R=+Ai),
		_F(CHAM_GD=	Vj,		COEF_R=+Aj),
		_F(CHAM_GD=	Vk,		COEF_R=+Ak),
		),
		INFO=1,OPERATION='COMB',TYPE_CHAM='NOEU_DEPL_R')
	
	# Extract the nonlinear forces generated by +DU_i+DU_j+DU_k
	EXTRACT_F_NL(DU['ppp'],F_NL,'ppp')
	
	H=cubic[0]
	IdH=cubic[1]
	# Isolate cubic part ijk
	H[IdH]=CREA_CHAMP(COMB=(
		_F(CHAM_GD=	F_NL['ppp'],		COEF_R=1/(6.0*Ai*Aj*Ak)),
		_F(CHAM_GD=	Gii,			COEF_R=-Ai**2/(6.0*Ai*Aj*Ak)),
		_F(CHAM_GD=	Gjj,			COEF_R=-Aj**2/(6.0*Ai*Aj*Ak)),
		_F(CHAM_GD=	Gkk,			COEF_R=-Ak**2/(6.0*Ai*Aj*Ak)),
		_F(CHAM_GD=	Gij,			COEF_R=-Ai*Aj/(3.0*Ai*Aj*Ak)),
		_F(CHAM_GD=	Gjk,			COEF_R=-Aj*Ak/(3.0*Ai*Aj*Ak)),
		_F(CHAM_GD=	Gik,			COEF_R=-Ai*Ak/(3.0*Ai*Aj*Ak)),
		_F(CHAM_GD=	Hiii,			COEF_R=-Ai**3/(6.0*Ai*Aj*Ak)),
		_F(CHAM_GD=	Hjjj,			COEF_R=-Aj**3/(6.0*Ai*Aj*Ak)),
		_F(CHAM_GD=	Hkkk,			COEF_R=-Ak**3/(6.0*Ai*Aj*Ak)),
		_F(CHAM_GD=	Hiij,			COEF_R=-Ai**2*Aj/(2.0*Ai*Aj*Ak)),
		_F(CHAM_GD=	Hjjk,			COEF_R=-Aj**2*Ak/(2.0*Ai*Aj*Ak)),
		_F(CHAM_GD=	Hiik,			COEF_R=-Ai**2*Ak/(2.0*Ai*Aj*Ak)),
		_F(CHAM_GD=	Hijj,			COEF_R=-Ai*Aj**2/(2.0*Ai*Aj*Ak)),
		_F(CHAM_GD=	Hjkk,			COEF_R=-Aj*Ak**2/(2.0*Ai*Aj*Ak)),
		_F(CHAM_GD=	Hikk,			COEF_R=-Ai*Ak**2/(2.0*Ai*Aj*Ak)),
		),
		OPERATION='COMB',TYPE_CHAM='NOEU_DEPL_R')
	
	DETRUIRE(CONCEPT = _F (NOM = F_NL['ppp']))



def Id(*list_of_indexes):
	# Id(1,2,3)  returns '123'
	# Id(1,2,12) returns '12C'
	# max number of modes 15
	# if one needs more than 15 modes
	# one just appends another digit to the list of extra symbols
	case=''
	extra_symbols=	('A','B','C','D','E','F')
	#		(=10,=11,=12,=13,=14,=15)
	for i in list_of_indexes:
		if i<10:# digits from 0 to 9: each index must occupy one single space!
			case=case+str(i)
		else:# digits higher than 9 becomes extra symbols
			case=case+extra_symbols[i-10]
	return case



def pack_i(G,H,i):
	return(G[Id(i,i)],H[Id(i,i,i)])



def pack_ij(G,H,i,j):
	return(G[Id(i,j)],H[Id(i,i,j)],H[Id(i,j,j)])



def pack_previous_ij(G,H,i,j):
	
	(Gii,Hiii)=pack_i(G,H,i)
	(Gjj,Hjjj)=pack_i(G,H,j)
	
	return (Gii,Gjj,Hiii,Hjjj)



def pack_previous_ijk(G,H,i,j,k):
	
	(Gii,Hiii)=	pack_i(G,H,i)
	(Gjj,Hjjj)=	pack_i(G,H,j)
	(Gkk,Hkkk)=	pack_i(G,H,k)
	
	(Gij,Hiij,Hijj)=pack_ij(G,H,i,j)
	(Gjk,Hjjk,Hjkk)=pack_ij(G,H,j,k)
	(Gik,Hiik,Hikk)=pack_ij(G,H,i,k)
	
	return (Gii,Gjj,Gkk,Gij,Gjk,Gik,Hiii,Hjjj,Hkkk,Hiij,Hjjk,Hiik,Hijj,Hjkk,Hikk)




####################################
###	Step Method Loops	####
####################################

G=dict()
H=dict()

# First Loop
for i in range(N_modes):
	current=(PHI[i],q[i])
	Combination_i(current,(G,Id(i,i)),*(H,Id(i,i,i)))


# Second Loop
for i in range(N_modes):
	for j in range(i+1,N_modes):
		previous=pack_previous_ij(G,H,i,j)
		current=(PHI[i],q[i],PHI[j],q[j])
		Combination_ij(current,previous,(G,Id(i,j)),*(H,Id(i,i,j),Id(i,j,j)))

# Third Loop
for i in range(N_modes):
	for j in range(i+1,N_modes):
		for k in range(j+1,N_modes):
			previous=pack_previous_ijk(G,H,i,j,k)			
			current=(PHI[i],q[i],PHI[j],q[j],PHI[k],q[k])
			Combination_ijk(current,previous,(H,Id(i,j,k)))




###############################################################
########	Second Order Reconstruction Vectors	#######
###############################################################

#	Equation of the change of coordinates at second order:
#	x(second) = 1/2 th R R 
th_tens = np.zeros([N_dofs,N_modes,N_modes])			# quadratic reconstruction tensors in python format
th = dict()							# quadratic reconstruction tensors in code_aster format


# Second Order vectors in physical basis are defined as:
# 
# thij = thji =  ( ZG_i + ZG_j )

# with

# the vectors ZG equal to:
# ZG_i = D_d^(-1).G_ij
# ZG_j = D_s^(-1).G_ij

# the matrices to be inverted equal to:
# D_i = {(wi)^2 M - K}
# D_j = {(wj)^2 M - K}


for i in range(N_modes):
	for j in range(i,N_modes):

		
		#  D = {(wi)^2 M - K}
		D=COMB_MATR_ASSE(COMB_R=(
			_F(	MATR_ASSE=K,	COEF_R=-1.0,),
			),);
		
		# must be stored factorised
		D=FACTORISER(reuse=D,MATR_ASSE=D, METHODE='MUMPS',PCENT_PIVOT=50);
		
		# Solve the system
		ZG=RESOUDRE(MATR=D, CHAM_NO=G[Id(i,j)],RESI_RELA=tol_quad,)
		
		# Compute bar{theta}_ij
		th[Id(i,j)]=CREA_CHAMP(COMB=(
			_F(CHAM_GD=	ZG,		COEF_R=+2),
			),
			OPERATION='COMB',TYPE_CHAM='NOEU_DEPL_R')
		
		
		th_tens[:,i,j]=th[Id(i,j)].EXTR_COMP(topo=1).valeurs		
		if i != j:			
			th_tens[:,j,i]=th[Id(i,j)].EXTR_COMP(topo=1).valeurs
		
		
		DETRUIRE(CONCEPT = _F (NOM = D))
		DETRUIRE(CONCEPT = _F (NOM = ZG))



###############################################################
########	Third Order Reduced Dynamics Tensors	#######
###############################################################
#
# Full tensors in physical basis 
# A[i,j,k]=G(phi[i],th[j,k])
# AH[i,j,k]=A[i,j,k]+H[i,j,k]
# AH_modal  = Phi_r.AH
AH_modal = np.zeros([N_modes,N_modes,N_modes,N_modes])		# CUBIC reduced dynamics tensors in python format (depl)


#
# To extract G(phi[i],th[j,k]) 
# one must first compute G(phi_i,phi_i), G(th_jk,th_jk)
# G(phi_i,phi_i) is available from Step method
# G(th_jk,th_jk) are evaluated with the following loop:
Gth=dict()
for j in range(N_modes):
	for k in range(j,N_modes):				
		current=(th[Id(j,k)],q[j]*q[k])
		quadratic=(Gth,'th'+Id(j,k,j,k))
		Combination_i(current,quadratic)		




# Then one can extract G(phi[i],th[j,k])
# with the following loop:
for i in range(N_modes):
	for j in range(N_modes):
		for k in range(j,N_modes):
						
			current=(PHI[i],q[i],th[Id(j,k)],q[j]*q[k])
			quadratic=(Gth,'th'+Id(i,j,k))
			previous=(G[Id(i,i)],Gth['th'+Id(j,k,j,k)],None,None)
			Combination_ij(current,previous,quadratic)

			


# Finally the modal AH can be calculated
for i in range(N_modes):
	for j in range(N_modes):
		for k in range(j,N_modes):
			# H[i,j,k] is only defined if i>=j>=k
			# but it is symmetric so H[k,j,i]=H[i,j,k]...
			# I call here the only H defined 
			so_ijk=tuple(sorted((i,j,k)))
			
			# Ah[i,j,k] = H[so(i,j,k)] + Gth[i,j,k]
			# Ah[i,k,j] = Ah[i,j,k]
			AH_ijk = CREA_CHAMP(COMB=(
				_F(CHAM_GD=	H[Id(*so_ijk)],		COEF_R=1),
				_F(CHAM_GD=	Gth['th'+Id(i,j,k)],	COEF_R=1),
				),OPERATION='COMB',TYPE_CHAM='NOEU_DEPL_R')
			
			for r_p in range(N_modes):
				AH_modal[r_p,i,j,k]=np.dot(EigenModes[r_p],AH_ijk.EXTR_COMP(topo=1).valeurs)
				AH_modal[r_p,i,k,j]=np.dot(EigenModes[r_p],AH_ijk.EXTR_COMP(topo=1).valeurs)
			
			DETRUIRE(CONCEPT = _F (NOM = AH_ijk))





thMphi = np.zeros([N_modes,N_modes,N_modes])			# quadratic reduced dynamics tensors from theta^T.M.phi
thKphi = np.zeros([N_modes,N_modes,N_modes])			# quadratic reduced dynamics tensors from theta^T.K.phi
phiMth = np.zeros([N_modes,N_modes,N_modes])			# quadratic reduced dynamics tensors from phi^T.M.theta
phiKth = np.zeros([N_modes,N_modes,N_modes])			# quadratic reduced dynamics tensors from phi^T.K.theta
phiGphiphi = np.zeros([N_modes,N_modes,N_modes])		# quadratic reduced dynamics tensors g = phi^T.G.phi.phi
thMth  = np.zeros([N_modes,N_modes,N_modes,N_modes])		# CUBIC reduced dynamics tensors from theta^T.M.theta
thKth  = np.zeros([N_modes,N_modes,N_modes,N_modes])		# CUBIC reduced dynamics tensors from theta^T.K.theta
thGphiphi  = np.zeros([N_modes,N_modes,N_modes,N_modes])	# CUBIC reduced dynamics tensors from theta^T.G.phi.phi


# 
for i in range(N_modes):
	for j in range(N_modes):
		#
		so_ij=tuple(sorted((i,j)))
		Mth_ij = PROD_MATR_CHAM(MATR_ASSE=M, CHAM_NO=th[Id(*so_ij)],);
		Kth_ij = PROD_MATR_CHAM(MATR_ASSE=K, CHAM_NO=th[Id(*so_ij)],);
		for r_p in range(N_modes):
			#
			thMphi[r_p,i,j]=np.dot(th_tens[:,r_p,i],MdotEigenModes[j])
			thKphi[r_p,i,j]=omega[j]**2*thMphi[r_p,i,j]
			#
			phiMth[r_p,i,j]=np.dot(EigenModes[r_p],Mth_ij.EXTR_COMP(topo=1).valeurs)
			phiKth[r_p,i,j]=omega[r_p]**2*phiMth[r_p,i,j]
			#
			phiGphiphi[r_p,i,j]=np.dot(EigenModes[r_p],G[Id(*so_ij)].EXTR_COMP(topo=1).valeurs)
			#
			for k in range(N_modes):
				#
				thMth[r_p,k,i,j]=np.dot(th_tens[:,r_p,k],Mth_ij.EXTR_COMP(topo=1).valeurs)
				thKth[r_p,k,i,j]=np.dot(th_tens[:,r_p,k],Kth_ij.EXTR_COMP(topo=1).valeurs)
				thGphiphi[r_p,k,i,j]=np.dot(th_tens[:,r_p,k],G[Id(*so_ij)].EXTR_COMP(topo=1).valeurs)
		#
		DETRUIRE(CONCEPT = _F (NOM = Mth_ij))
		DETRUIRE(CONCEPT = _F (NOM = Kth_ij))






Export=dict()
# Reduced Dynamics First Order
Export['Kr']=np.diag(omega)**2
Export['Mr']=np.eye(N_modes)
# Reduced Dynamics Second Order
Export['thMphi']=thMphi
Export['thKphi']=thKphi
Export['phiMth']=phiMth
Export['phiKth']=phiKth
Export['phiGphiphi']=phiGphiphi
# Reduced Dynamics Third Order
Export['AH']=AH_modal
Export['thMth']=thMth
Export['thKth']=thKth
Export['thGphiphi']=thGphiphi
# Reconstruction First Order
Export['phi']=EigenModes
Export['Mphi']=MdotEigenModes
# Reconstruction Second Order
Export['th']=th_tens
#
sio.savemat(output_filename, Export)












print('Eureka')
FIN(INFO_RESU='NON')

# ------------------------------------------------------------------------------------------

  Ouverture en écriture du fichier ./vola.1
                                                                                
                                                                                
              -- CODE_ASTER -- VERSION : EXPLOITATION (stable) --               
                                                                                
                     Version 13.4.0 modifiée le 23/08/2017                      
                     révision d2fb7e569019 - branche 'v13'                      
                         Copyright EDF R&D 1991 - 2020                          
                                                                                
                    Exécution du : Thu Sep 17 16:32:17 2020                     
                        Nom de la machine : me-av3116g3                         
                              Architecture : 64bit                              
                          Type de processeur : x86_64                           
      Système d'exploitation : Linux debian stretch/sid  4.4.0-143-generic      
                        Langue des messages : en (UTF-8)                        
                                                                                
                           Version de Python : 2.7.10                           
                            Version de NumPy : 1.9.2                            
   
   !------------------------------------------------------------------------------------!
   ! <A> <SUPERVIS2_2>                                                                  !
   !                                                                                    !
   !     Vous utilisez une vieille version de Code_Aster.                               !
   !                                                                                    !
   !     En mettant à jour votre version, vous bénéficierez des dernières améliorations !
   !     apportées au code depuis 15 mois.                                              !
   !     Si vous avez des développements privés, vous risquez d'avoir un travail        !
   !     important de portage si vous ne suivez pas les mises à jour.                   !
   !                                                                                    !
   !                                                                                    !
   ! Ceci est une alarme. Si vous ne comprenez pas le sens de cette                     !
   ! alarme, vous pouvez obtenir des résultats inattendus !                             !
   !------------------------------------------------------------------------------------!
   
                           Parallélisme MPI : inactif                           
                          Parallélisme OpenMP : actif                           
                        Nombre de processus utilisés : 2                        
                     Version de la librairie HDF5 : 1.8.14                      
                      Version de la librairie MED : 3.2.1                       
                     Version de la librairie MFront : 3.0.0                     
                     Version de la librairie MUMPS : 5.1.1                      
                        Librairie PETSc : non disponible                        
                     Version de la librairie SCOTCH : 6.0.4                     

                 Mémoire limite pour l'exécution : 15624.00 Mo                  
                   consommée par l'initialisation : 547.49 Mo                   
                  par les objets du jeu de commandes : 0.00 Mo                  
                reste pour l'allocation dynamique : 15011.77 Mo                 
                Taille limite des fichiers d'échange : 12.00 Go                 
                                                                                

  # ------------------------------------------------------------------------------------------
  # Commande No :  0001            Concept de type : -
  # ------------------------------------------------------------------------------------------
  DEBUT(PAR_LOT='NON',
        INFO=1,
        IMPR_MACRO='NON',
        DEBUG=_F(JEVEUX='NON',
                 JXVERI='NON',
                 HIST_ETAPE='NON',
                 SDVERI='NON',),
        MEMOIRE=_F(TAILLE_BLOC=800.0,
                   TAILLE_GROUP_ELEM=1000,),
        RESERVE_CPU=_F(BORNE=900,),
        MESURE_TEMPS=_F(MOYENNE='NON',
                        NIVE_DETAIL=1,),
        )

   
   !------------------------------------------------------------------------------------!
   ! <A> <SUPERVIS_1>                                                                   !
   !                                                                                    !
   !  L'utilisation du mot-clé PAR_LOT='NON' permet d'accéder en lecture et en écriture !
   !  au contenu des concepts Aster. De ce fait, votre étude est exclue du périmètre    !
   !  qualifié de Code_Aster puisque toutes ses étapes ne peuvent être certifiées.      !
   !                                                                                    !
   !  Conseils :                                                                        !
   !    - Il n'y a pas particulièrement de risque de résultat faux... sauf si votre     !
   !      programmation l'introduit.                                                    !
   !    - Distinguez le calcul lui-même (qui doit sans doute passer en PAR_LOT='OUI')   !
   !      des post-traitements (qui nécessiteraient le mode PAR_LOT='NON') qui peuvent  !
   !      être réalisés en POURSUITE.                                                   !
   !                                                                                    !
   !                                                                                    !
   ! Ceci est une alarme. Si vous ne comprenez pas le sens de cette                     !
   ! alarme, vous pouvez obtenir des résultats inattendus !                             !
   !------------------------------------------------------------------------------------!
   

  Valeur initiale du temps CPU maximum =   22500 secondes
  Valeur du temps CPU maximum passé aux commandes =   21600 secondes
  Réserve CPU prévue = 900 secondes

  Ouverture en écriture du fichier ./glob.1

  Ouverture en écriture du fichier ./vola.1

  Ouverture en lecture du fichier /home/av3116/salome_meca/V2017/tools/Code_aster_stable-v134_smeca/lib/aster/elem.1

     Nom de la base                          :  ELEMBASE
     Créée avec la version                   :  13.04.00
     Nombre d'enregistrements utilisés       :  44
     Nombre d'enregistrements maximum        :  512
     Longueur d'enregistrement (octets)      :  819200
     Nombre d'identificateurs utilisés       :  123
     Taille maximum du répertoire            :  300
     Pourcentage d'utilisation du répertoire :  41 %

  Ouverture en lecture du fichier /home/av3116/salome_meca/V2017/tools/Code_aster_stable-v134_smeca/lib/aster/elem.1


     Nom de la base                          :  ELEMBASE
     Nombre d'enregistrements utilisés       :  44
     Nombre d'enregistrements maximum        :  512
     Longueur d'enregistrement (octets)      :  819200
     Nombre total d'accès en lecture         :  62
     Volume des accès en lecture             :         48.44 Mo.
     Nombre total d'accès en écriture        :  0
     Volume des accès en écriture            :          0.00 Mo.
     Nombre d'identificateurs utilisés       :  123
     Taille maximum du répertoire            :  300
     Pourcentage d'utilisation du répertoire :  41 %

  Relecture des catalogues des éléments faite.

  Fin de lecture (durée  0.038555  s.) 
  # Mémoire (Mo) :   657.26 /   649.56 /    44.66 /    23.16 (VmPeak / VmSize / Optimum / Minimum)
  # Fin commande No : 0001   user+syst:        0.05s (syst:        0.05s, elaps:        0.06s)
  # ------------------------------------------------------------------------------------------

  # ------------------------------------------------------------------------------------------
  # Commande No :  0002            Concept de type : maillage_sdaster
  # ------------------------------------------------------------------------------------------
  mesh = LIRE_MAILLAGE(UNITE=20,
                       FORMAT='MED',
                       INFO_MED=1,
                       INFO=1,
                       VERI_MAIL=_F(APLAT=1.E-3,
                                    VERIF='OUI',),
                       )

Vérification du maillage.

------------ MAILLAGE mesh     - IMPRESSIONS NIVEAU  1 ------------

JE-17-SEPT-2020 16:32:17                                                        

NOMBRE DE NOEUDS                         621

NOMBRE DE MAILLES                        532
                              SEG3                  204
                              QUAD8                 248
                              HEXA20                 80

NOMBRE DE GROUPES DE MAILLES               1
                              clamped_faces                        8

--------------------------------------------------------------------------------

  # Mémoire (Mo) :   657.26 /   650.36 /    44.66 /    23.16 (VmPeak / VmSize / Optimum / Minimum)
  # Fin commande No : 0002   user+syst:        0.02s (syst:        0.00s, elaps:        0.02s)
  # ------------------------------------------------------------------------------------------

  # ------------------------------------------------------------------------------------------
  # Commande No :  0003            Concept de type : modele_sdaster
  # ------------------------------------------------------------------------------------------
  model = AFFE_MODELE(MAILLAGE=mesh,
                      AFFE=_F(PHENOMENE='MECANIQUE',
                              TOUT='OUI',
                              MODELISATION=('3D', ),),
                      INFO=1,
                      VERI_JACOBIEN='OUI',
                      DISTRIBUTION=_F(PARTITIONNEUR='METIS',
                                      METHODE='SOUS_DOMAINE',),
                      )


Sur les 532 mailles du maillage mesh, on a demandé l'affectation de 532, on a pu en affecter 532
 Modélisation     Type maille  Élément fini     Nombre
                  SEG3         MECA_ARETE3      204
                  QUAD8        MECA_FACE8       248
 3D               HEXA20       MECA_HEXA20      80
#2      Calculs elementaires et assemblages               CPU (USER+SYST/SYST/ELAPS):      0.00      0.00      0.00
  # Mémoire (Mo) :   684.09 /   683.87 /    44.66 /    34.35 (VmPeak / VmSize / Optimum / Minimum)
  # Fin commande No : 0003   user+syst:        0.03s (syst:        0.01s, elaps:        0.02s)
  # ------------------------------------------------------------------------------------------

  # ------------------------------------------------------------------------------------------
  # Commande No :  0004            Concept de type : mater_sdaster
  # ------------------------------------------------------------------------------------------
  mater = DEFI_MATERIAU(ELAS=_F(E=2.10000000000E11,
                                RHO=8750,
                                NU=0.3,
                                COEF_AMOR=1.0,),
                        INFO=1,)


 MATERIAU : mater   
 RELATION DE COMPORTEMENT: ELAS                            


  # Mémoire (Mo) :   684.09 /   683.87 /    44.66 /    34.35 (VmPeak / VmSize / Optimum / Minimum)
  # Fin commande No : 0004   user+syst:        0.00s (syst:        0.00s, elaps:        0.00s)
  # ------------------------------------------------------------------------------------------

  # ------------------------------------------------------------------------------------------
  # Commande No :  0005            Concept de type : cham_mater
  # ------------------------------------------------------------------------------------------
  fieldmat = AFFE_MATERIAU(MODELE=model,
                           AFFE=_F(MATER=(mater, ),
                                   TOUT='OUI',),
                           INFO=1,
                           )

  # Mémoire (Mo) :   684.09 /   683.87 /    44.66 /    34.35 (VmPeak / VmSize / Optimum / Minimum)
  # Fin commande No : 0005   user+syst:        0.02s (syst:        0.01s, elaps:        0.01s)
  # ------------------------------------------------------------------------------------------

  # ------------------------------------------------------------------------------------------
  # Commande No :  0006            Concept de type : char_meca
  # ------------------------------------------------------------------------------------------
  BC = AFFE_CHAR_MECA(MODELE=model,
                      DDL_IMPO=_F(GROUP_MA=('clamped_faces', ),
                                  DZ=0.0,
                                  DX=0.0,
                                  DY=0.0,),
                      INFO=1,
                      VERI_NORM='OUI',)

  # Mémoire (Mo) :   684.29 /   684.02 /    44.66 /    34.35 (VmPeak / VmSize / Optimum / Minimum)
  # Fin commande No : 0006   user+syst:        0.01s (syst:        0.00s, elaps:        0.01s)
  # ------------------------------------------------------------------------------------------

  # ------------------------------------------------------------------------------------------
  # Commande No :  0007            Concept de type : -
  # ------------------------------------------------------------------------------------------
  ASSEMBLAGE(CHARGE=(BC, ),
             NUME_DDL=CO(nddl),
             MODELE=model,
             CHAM_MATER=fieldmat,
             MATR_ASSE=(_F(OPTION='RIGI_MECA',
                           MATRICE=CO(K),
                           MODE_FOURIER=0,),
                        _F(OPTION='MASS_MECA',
                           MATRICE=CO(M),),
                        ),
             INFO=1,
             INST=0.0,)

#2      Calculs elementaires et assemblages               CPU (USER+SYST/SYST/ELAPS):      0.03      0.01      0.02

Le système linéaire à résoudre a 2115 degrés de liberté:
   - 1863 sont des degrés de liberté physiques
     (ils sont portés par 621 noeuds du maillage)
   - 252 sont les couples de paramètres de Lagrange associés
     aux 126 relations linéaires dualisées.

La matrice est de taille 2115 équations.
Elle contient 104940 termes non nuls si elle est symétrique et 207765 termes non nuls si elle n'est pas symétrique.
Soit un taux de remplissage de   4.645 %.
#1      Resolution des systemes lineaires                 CPU (USER+SYST/SYST/ELAPS):      0.02      0.01      0.01
#2      Calculs elementaires et assemblages               CPU (USER+SYST/SYST/ELAPS):      0.02      0.01      0.01
#2      Calculs elementaires et assemblages               CPU (USER+SYST/SYST/ELAPS):      0.01      0.01      0.01
#2      Calculs elementaires et assemblages               CPU (USER+SYST/SYST/ELAPS):      0.02      0.00      0.01
  # Mémoire (Mo) :   692.53 /   691.99 /    44.66 /    36.38 (VmPeak / VmSize / Optimum / Minimum)
  # Fin commande No : 0007   user+syst:        0.14s (syst:        0.05s, elaps:        0.08s)
  # ------------------------------------------------------------------------------------------

  # ------------------------------------------------------------------------------------------
  # Commande No :  0013            Concept de type : cham_no_sdaster
  # ------------------------------------------------------------------------------------------
  U = CREA_CHAMP(TYPE_CHAM='NOEU_DEPL_R',
                 OPERATION='AFFE',
                 MAILLAGE=mesh,
                 AFFE=_F(NOM_CMP=('DX', 'DY', 'DZ'),
                         VALE=(0.0, 0.0, 0.0),
                         TOUT='OUI',),
                 INFO=1,)

  # Mémoire (Mo) :   692.53 /   691.99 /    44.66 /    36.38 (VmPeak / VmSize / Optimum / Minimum)
  # Fin commande No : 0013   user+syst:        0.00s (syst:        0.00s, elaps:        0.01s)
  # ------------------------------------------------------------------------------------------

  # ------------------------------------------------------------------------------------------
  # Commande No :  0014            Concept de type : cham_elem
  # ------------------------------------------------------------------------------------------
  SIGP = CREA_CHAMP(TYPE_CHAM='ELGA_SIEF_R',
                    OPERATION='AFFE',
                    MODELE=model,
                    AFFE=_F(NOM_CMP=('SIXX', 'SIYY', 'SIZZ', 'SIXY', 'SIYZ', 'SIXZ'),
                            VALE=(0.0, 0.0, 0.0, 0.0, 0.0, 0.0),
                            TOUT='OUI',),
                    PROL_ZERO='NON',
                    INFO=1,)

  # Mémoire (Mo) :   693.16 /   692.27 /    44.66 /    36.38 (VmPeak / VmSize / Optimum / Minimum)
  # Fin commande No : 0014   user+syst:        0.01s (syst:        0.00s, elaps:        0.01s)
  # ------------------------------------------------------------------------------------------

  # ------------------------------------------------------------------------------------------
  # Commande No :  0015            Concept de type : cham_elem
  # ------------------------------------------------------------------------------------------
  VARIP = CREA_CHAMP(TYPE_CHAM='ELGA_VARI_R',
                     OPERATION='AFFE',
                     MODELE=model,
                     AFFE=_F(NOM_CMP=('V1', ),
                             VALE=(0.0, ),
                             TOUT='OUI',),
                     PROL_ZERO='NON',
                     INFO=1,)

  # Mémoire (Mo) :   693.16 /   692.29 /    44.66 /    36.38 (VmPeak / VmSize / Optimum / Minimum)
  # Fin commande No : 0015   user+syst:        0.00s (syst:        0.00s, elaps:        0.00s)
  # ------------------------------------------------------------------------------------------

  # ------------------------------------------------------------------------------------------
  # Commande No :  0016            Concept de type : fonction_sdaster
  # ------------------------------------------------------------------------------------------
  RAMPE = DEFI_FONCTION(PROL_DROITE='LINEAIRE',
                        VALE=(0.0, 0.0, 1.0, 1.0),
                        NOM_PARA='INST',
                        PROL_GAUCHE='LINEAIRE',
                        INFO=1,
                        INTERPOL=('LIN', ),
                        NOM_RESU='TOUTRESU',
                        VERIF='CROISSANT',)

  # Mémoire (Mo) :   693.16 /   692.29 /    44.66 /    36.38 (VmPeak / VmSize / Optimum / Minimum)
  # Fin commande No : 0016   user+syst:        0.01s (syst:        0.00s, elaps:        0.00s)
  # ------------------------------------------------------------------------------------------

  # ------------------------------------------------------------------------------------------
  # Commande No :  0017            Concept de type : listr8_sdaster
  # ------------------------------------------------------------------------------------------
  LIST = DEFI_LIST_REEL(DEBUT=0.0,
                        INTERVALLE=_F(NOMBRE=1,
                                      JUSQU_A=1.0,),
                        INFO=1,)

  # Mémoire (Mo) :   693.16 /   692.29 /    44.66 /    36.38 (VmPeak / VmSize / Optimum / Minimum)
  # Fin commande No : 0017   user+syst:        0.00s (syst:        0.00s, elaps:        0.00s)
  # ------------------------------------------------------------------------------------------

  # ------------------------------------------------------------------------------------------
  # Commande No :  0018            Concept de type : mode_meca
  # ------------------------------------------------------------------------------------------
  modes = CALC_MODES(OPTION='PLUS_PETITE',
                     TYPE_RESU='DYNAMIQUE',
                     MATR_RIGI=K,
                     MATR_MASS=M,
                     CALC_FREQ=_F(NMAX_FREQ=11,
                                  PREC_SHIFT=0.05,
                                  SEUIL_FREQ=1.E-2,
                                  NMAX_ITER_SHIFT=3,),
                     NORM_MODE=_F(NORME='MASS_GENE',
                                  INFO=1,),
                     SOLVEUR=_F(RENUM='METIS',
                                NPREC=8,
                                METHODE='MULT_FRONT',),
                     SOLVEUR_MODAL=_F(NMAX_ITER_SOREN=20,
                                      PREC_SOREN=0.0,
                                      PARA_ORTHO_SOREN=0.717,
                                      APPROCHE='REEL',
                                      METHODE='SORENSEN',),
                     VERI_MODE=_F(STOP_ERREUR='NON',
                                  SEUIL=1.E-05,
                                  PREC_SHIFT=5.E-3,
                                  STURM='OUI',),
                     INFO=1,
                     STOP_BANDE_VIDE='OUI',
                     AMELIORATION='NON',)

  Le nombre total de DDL est       :       2115
  Le nombre de DDL de Lagrange est :        252
  Le nombre de DDL actifs est      :       1737
  L'option choisie est : PLUS_PETITE
  La valeur de décalage en fréquence est :  0.00000E+00
------------------------------------------------------------------------

      Informations sur le calcul demandé:

  Nombre de modes recherchés  : 11

  La dimension de l'espace réduit est : 0
  Elle est inférieure au nombre de modes, on la prend égale à : 22


     =============================================
     =       Méthode de Sorensen (code ARPACK)   =
     =       Version :  2.4                      =
     =          Date :  07/31/96                 =
     =============================================

     Nombre de redémarrages                     =     3
     Nombre de produits OP*X                    =    35
     Nombre de produits B*X                     =   101
     Nombre de réorthogonalisations  (étape 1)  =    30
     Nombre de réorthogonalisations  (étape 2)  =     0
     Nombre de redémarrages du a un V0 nul      =     0

------------------------------------------------------------------------
  Les fréquences calculées sont comprises entre :
      Fréquence inférieure :  5.09000E+01
      Fréquence supérieure :  9.75849E+02

------------------------------------------------------------------------
     Calcul modal : Méthode d'itération simultanée
                    Méthode de Sorensen

numéro    fréquence (HZ)     norme d'erreur
    1       5.09000E+01        3.29738E-08
    2       5.09506E+01        3.77925E-08
    3       1.40736E+02        3.82920E-09
    4       1.40876E+02        4.21033E-09
    5       2.77093E+02        4.18866E-09
    6       2.77365E+02        1.13670E-09
    7       4.60642E+02        6.35352E-10
    8       4.61090E+02        4.19555E-10
    9       6.92926E+02        1.84963E-10
   10       6.93593E+02        2.58553E-10
   11       9.75849E+02        8.15371E-11

  Norme d'erreur moyenne   :  7.79192E-09
------------------------------------------------------------------------

         Vérification à posteriori des modes


  Degré de liberté physique associé au noeud N574 et à la composante DX.

Problème : la matrice est singulière ou presque singulière :
  Lors de la factorisation de la matrice, on a rencontré un problème
  (pivot nul ou presque nul) à la ligne 1972 qui correspond au degré de liberté donné ci-dessus.
  Le nombre de décimales "perdues" pour cette ligne est : 8.
  Ce nombre de décimales perdues est lié au degré de singularité de la matrice.
  Plus il est grand, plus le système est singulier.
  Quand on a perdu plus de 8 décimales, on estime que l'on a perdu 50% de la précision
  des nombres réels (qui ont 15 décimales environ).

Risques et conseils :
   * Si la ligne correspond a un degré de liberté physique, il s'agit probablement d'un mouvement
     de corps rigide mal bloqué.
     Vérifiez les conditions aux limites.
     Si vous faites du contact, il ne faut pas que la structure ne "tienne" que par le contact.
     Vérifiez également les caractéristiques matériaux (module d'Young, ...).

   * Si la ligne correspond a un degré de liberté de Lagrange, il s'agit sans doute d'une condition
     limite redondante.
     En particulier, il se peut que la relation linéaire surabondante provienne des conditions de contact.
     Peut-être devriez vous exclure certains noeuds des conditions de contact
     (mots clés SANS_NOEUD et SANS_GROUP_NO).

   * Si le solveur utilisé est LDLT ou MULT_FRONT, vous pouvez utiliser le solveur MUMPS
     car celui-ci est le seul à pouvoir factoriser les matrices qui ne sont pas définies positives.

   * Parfois, en parallèle, le critère de détection de singularité de MUMPS est trop pessimiste ! Il reste néanmoins souvent
     possible de faire passer le calcul complet en relaxant ce critère (augmenter de 1 ou 2 la valeur du mot-clé NPREC) ou
     en le débranchant (valeur du mot-clé NPREC=-1) ou en relançant le calcul sur moins de processeurs.

   * Il se peut aussi que ce phénomène soit tout à fait normal avec X-FEM si la fissure passe
     très près d'un noeud.
     Si le nombre de décimales perdues n'est pas trop grand (max 10 décimales),
     vous pouvez relancer le calcul en augmentant le nombre de décimales perdues autorisé :
     mot-clé NPREC du mot clé facteur SOLVEUR.
     Sinon, contactez l'équipe de développement.

  On diminue la valeur minimale de  5.00000E+00 %.
  La valeur minimale devient :  4.94870E+01
   
   !-------------------------------------------------------------------------------------------!
   ! <A> <ALGELINE5_23>                                                                        !
   !                                                                                           !
   !    pour le concept  modes,                                                                !
   !                                                                                           !
   !   dans l'intervalle [49.486994  ,  978.285889]                                            !
   !   il y a théoriquement  12 fréquence(s) propres()                                         !
   !   et on en a calculé  11.                                                                 !
   !                                                                                           !
   !  Ce problème peut apparaître lorsqu'il y a des modes multiples (structure avec symétries) !
   !  ou une forte densité modale.                                                             !
   !                                                                                           !
   !                                                                                           !
   ! Ceci est une alarme. Si vous ne comprenez pas le sens de cette                            !
   ! alarme, vous pouvez obtenir des résultats inattendus !                                    !
   !-------------------------------------------------------------------------------------------!
   
------------------------------------------------------------------------

#1      Resolution des systemes lineaires                 CPU (USER+SYST/SYST/ELAPS):      0.27      0.02      0.16
 Normalisation des modes : modes


 NUME_ORDRE             ancienne norme              nouvelle norme
     1                  SANS_CMP: LAGR                   MASS_GENE
     2                  SANS_CMP: LAGR                   MASS_GENE
     3                  SANS_CMP: LAGR                   MASS_GENE
     4                  SANS_CMP: LAGR                   MASS_GENE
     5                  SANS_CMP: LAGR                   MASS_GENE
     6                  SANS_CMP: LAGR                   MASS_GENE
     7                  SANS_CMP: LAGR                   MASS_GENE
     8                  SANS_CMP: LAGR                   MASS_GENE
     9                  SANS_CMP: LAGR                   MASS_GENE
    10                  SANS_CMP: LAGR                   MASS_GENE
    11                  SANS_CMP: LAGR                   MASS_GENE
  # Mémoire (Mo) :   706.67 /   702.55 /    47.53 /    36.38 (VmPeak / VmSize / Optimum / Minimum)
  # Fin commande No : 0018   user+syst:        0.43s (syst:        0.04s, elaps:        0.30s)
  # ------------------------------------------------------------------------------------------

  # ------------------------------------------------------------------------------------------
  # Commande No :  0024            Concept de type : table_sdaster
  # ------------------------------------------------------------------------------------------
  TFREQ = RECU_TABLE(CO=modes,
                     NOM_PARA=('FREQ', ),)

  # Mémoire (Mo) :   706.67 /   702.55 /    47.53 /    36.38 (VmPeak / VmSize / Optimum / Minimum)
  # Fin commande No : 0024   user+syst:        0.00s (syst:        0.00s, elaps:        0.00s)
  # ------------------------------------------------------------------------------------------

  # ------------------------------------------------------------------------------------------
  # Commande No :  0025            Concept de type : cham_no_sdaster
  # ------------------------------------------------------------------------------------------
  PHI_0 = CREA_CHAMP(TYPE_CHAM='NOEU_DEPL_R',
                     OPERATION='EXTR',
                     RESULTAT=modes,
                     NOM_CHAM='DEPL',
                     PRECISION=1.E-06,
                     NUME_MODE=3,
                     INTERPOL='NON',
                     CRITERE='RELATIF',
                     INFO=1,)

  # Mémoire (Mo) :   706.67 /   702.55 /    47.53 /    36.38 (VmPeak / VmSize / Optimum / Minimum)
  # Fin commande No : 0025   user+syst:        0.01s (syst:        0.00s, elaps:        0.00s)
  # ------------------------------------------------------------------------------------------

  # ------------------------------------------------------------------------------------------
  # Commande No :  0026            Concept de type : cham_no_sdaster
  # ------------------------------------------------------------------------------------------
  MPHI_0 = PROD_MATR_CHAM(CHAM_NO=PHI_0,
                          MATR_ASSE=M,)

  # Mémoire (Mo) :   706.67 /   702.68 /    47.53 /    36.38 (VmPeak / VmSize / Optimum / Minimum)
  # Fin commande No : 0026   user+syst:        0.00s (syst:        0.00s, elaps:        0.01s)
  # ------------------------------------------------------------------------------------------

  # ------------------------------------------------------------------------------------------
  # Commande No :  0027            Concept de type : char_meca
  # ------------------------------------------------------------------------------------------
  CSTR_0 = AFFE_CHAR_MECA(MODELE=model,
                          INFO=1,
                          LIAISON_CHAMNO=_F(COEF_IMPO=0.0,
                                            CHAM_NO=MPHI_0,
                                            NUME_LAGR='NORMAL',),
                          VERI_NORM='OUI',)

  # Mémoire (Mo) :   706.67 /   703.20 /    47.53 /    36.38 (VmPeak / VmSize / Optimum / Minimum)
  # Fin commande No : 0027   user+syst:        0.01s (syst:        0.00s, elaps:        0.01s)
  # ------------------------------------------------------------------------------------------

  # ------------------------------------------------------------------------------------------
  # Commande No :  0028            Concept de type : cham_no_sdaster
  # ------------------------------------------------------------------------------------------
  PHI_1 = CREA_CHAMP(TYPE_CHAM='NOEU_DEPL_R',
                     OPERATION='EXTR',
                     RESULTAT=modes,
                     NOM_CHAM='DEPL',
                     PRECISION=1.E-06,
                     NUME_MODE=7,
                     INTERPOL='NON',
                     CRITERE='RELATIF',
                     INFO=1,)

  # Mémoire (Mo) :   706.67 /   703.46 /    47.53 /    36.38 (VmPeak / VmSize / Optimum / Minimum)
  # Fin commande No : 0028   user+syst:        0.00s (syst:        0.00s, elaps:        0.01s)
  # ------------------------------------------------------------------------------------------

  # ------------------------------------------------------------------------------------------
  # Commande No :  0029            Concept de type : cham_no_sdaster
  # ------------------------------------------------------------------------------------------
  MPHI_1 = PROD_MATR_CHAM(CHAM_NO=PHI_1,
                          MATR_ASSE=M,)

  # Mémoire (Mo) :   706.67 /   703.46 /    47.53 /    36.38 (VmPeak / VmSize / Optimum / Minimum)
  # Fin commande No : 0029   user+syst:        0.00s (syst:        0.00s, elaps:        0.00s)
  # ------------------------------------------------------------------------------------------

  # ------------------------------------------------------------------------------------------
  # Commande No :  0030            Concept de type : char_meca
  # ------------------------------------------------------------------------------------------
  CSTR_1 = AFFE_CHAR_MECA(MODELE=model,
                          INFO=1,
                          LIAISON_CHAMNO=_F(COEF_IMPO=0.0,
                                            CHAM_NO=MPHI_1,
                                            NUME_LAGR='NORMAL',),
                          VERI_NORM='OUI',)

  # Mémoire (Mo) :   706.67 /   704.10 /    47.53 /    36.38 (VmPeak / VmSize / Optimum / Minimum)
  # Fin commande No : 0030   user+syst:        0.01s (syst:        0.00s, elaps:        0.01s)
  # ------------------------------------------------------------------------------------------

  # ------------------------------------------------------------------------------------------
  # Commande No :  0031            Concept de type : cham_no_sdaster
  # ------------------------------------------------------------------------------------------
  PHI_2 = CREA_CHAMP(TYPE_CHAM='NOEU_DEPL_R',
                     OPERATION='EXTR',
                     RESULTAT=modes,
                     NOM_CHAM='DEPL',
                     PRECISION=1.E-06,
                     NUME_MODE=11,
                     INTERPOL='NON',
                     CRITERE='RELATIF',
                     INFO=1,)

  # Mémoire (Mo) :   706.67 /   704.23 /    47.53 /    36.38 (VmPeak / VmSize / Optimum / Minimum)
  # Fin commande No : 0031   user+syst:        0.01s (syst:        0.00s, elaps:        0.00s)
  # ------------------------------------------------------------------------------------------

  # ------------------------------------------------------------------------------------------
  # Commande No :  0032            Concept de type : cham_no_sdaster
  # ------------------------------------------------------------------------------------------
  MPHI_2 = PROD_MATR_CHAM(CHAM_NO=PHI_2,
                          MATR_ASSE=M,)

  # Mémoire (Mo) :   706.67 /   704.23 /    47.53 /    36.38 (VmPeak / VmSize / Optimum / Minimum)
  # Fin commande No : 0032   user+syst:        0.00s (syst:        0.00s, elaps:        0.01s)
  # ------------------------------------------------------------------------------------------

  # ------------------------------------------------------------------------------------------
  # Commande No :  0033            Concept de type : char_meca
  # ------------------------------------------------------------------------------------------
  CSTR_2 = AFFE_CHAR_MECA(MODELE=model,
                          INFO=1,
                          LIAISON_CHAMNO=_F(COEF_IMPO=0.0,
                                            CHAM_NO=MPHI_2,
                                            NUME_LAGR='NORMAL',),
                          VERI_NORM='OUI',)

  # Mémoire (Mo) :   706.67 /   704.86 /    47.53 /    36.38 (VmPeak / VmSize / Optimum / Minimum)
  # Fin commande No : 0033   user+syst:        0.01s (syst:        0.00s, elaps:        0.01s)
  # ------------------------------------------------------------------------------------------

  # ------------------------------------------------------------------------------------------
  # Commande No :  0034            Concept de type : cham_no_sdaster
  # ------------------------------------------------------------------------------------------
  DU_p = CREA_CHAMP(INFO=1,
                    TYPE_CHAM='NOEU_DEPL_R',
                    OPERATION='COMB',
                    COMB=_F(CHAM_GD=PHI_0,
                            COEF_R=0.02,),
                    )

  # Mémoire (Mo) :   706.67 /   704.99 /    47.53 /    36.38 (VmPeak / VmSize / Optimum / Minimum)
  # Fin commande No : 0034   user+syst:        0.01s (syst:        0.00s, elaps:        0.00s)
  # ------------------------------------------------------------------------------------------

  # ------------------------------------------------------------------------------------------
  # Commande No :  0035            Concept de type : cham_no_sdaster
  # ------------------------------------------------------------------------------------------
  DU_m = CREA_CHAMP(INFO=1,
                    TYPE_CHAM='NOEU_DEPL_R',
                    OPERATION='COMB',
                    COMB=_F(CHAM_GD=PHI_0,
                            COEF_R=-0.02,),
                    )

  # Mémoire (Mo) :   706.67 /   705.07 /    47.53 /    36.38 (VmPeak / VmSize / Optimum / Minimum)
  # Fin commande No : 0035   user+syst:        0.00s (syst:        0.00s, elaps:        0.00s)
  # ------------------------------------------------------------------------------------------

  # ------------------------------------------------------------------------------------------
  # Commande No :  0036            Concept de type : table_container
  # ------------------------------------------------------------------------------------------
  F_TABLE = CALCUL(INFO=1,
                   OPTION=('COMPORTEMENT', 'FORC_INTE_ELEM', 'MATR_TANG_ELEM', 'FORC_NODA_ELEM'),
                   SIGM=SIGP,
                   DEPL=U,
                   INCR_DEPL=DU_p,
                   CHAM_MATER=fieldmat,
                   VARI=VARIP,
                   MODELE=model,
                   EXCIT=_F(CHARGE=BC,
                            TYPE_CHARGE='FIXE_CSTE',),
                   COMPORTEMENT=_F(DEFORMATION='PETIT',
                                   RELATION='ELAS',
                                   ITER_INTE_MAXI=20,
                                   RESI_INTE_RELA=1.E-06,
                                   ITER_INTE_PAS=0,
                                   RESI_CPLAN_RELA=1.E-06,
                                   PARM_THETA=1.0,
                                   SYME_MATR_TANG='OUI',
                                   ITER_CPLAN_MAXI=1,
                                   PARM_ALPHA=1.0,),
                   INCREMENT=_F(LIST_INST=LIST,
                                NUME_ORDRE=1,),
                   )


 Sur certaines mailles, la modélisation est incompatible avec le comportement.
 Une erreur fatale pourrait suivre se message.

Liste des comportements
Affecté sur 532 éléments
  Relation                             : ELAS
  Déformation                          : PETIT
  Nombre total de variables internes   : 1
         V1 : VIDE
   
   !-----------------------------------------------------------------------------------------------------------------------------------!
   ! <A> <COMPOR2_23>                                                                                                                  !
   !                                                                                                                                   !
   !    Il y a incohérence entre le champ des variables internes et le comportement affecté sur les mailles (si vous ne l'avez pas     !
   ! précisé, on suppose par défaut                                                                                                    !
   ! que le comportement est élastique).                                                                                               !
   !    On ne peut pas modifier le champ des variables internes de manière automatique.                                                !
   !    Mais comme vous semblez être dans un cas autorisé (voir message précédent), la reprise de ce champ dans un calcul non-linéaire !
   ! devrait bien se passer (correction automatique dans l'opérateur).                                                                 !
   !                                                                                                                                   !
   !                                                                                                                                   !
   ! Ceci est une alarme. Si vous ne comprenez pas le sens de cette                                                                    !
   ! alarme, vous pouvez obtenir des résultats inattendus !                                                                            !
   !-----------------------------------------------------------------------------------------------------------------------------------!
   
#2      Calculs elementaires et assemblages               CPU (USER+SYST/SYST/ELAPS):      0.11      0.04      0.06
  # Mémoire (Mo) :   713.24 /   706.88 /    53.42 /    40.65 (VmPeak / VmSize / Optimum / Minimum)
  # Fin commande No : 0036   user+syst:        0.17s (syst:        0.05s, elaps:        0.10s)
  # ------------------------------------------------------------------------------------------

  # ------------------------------------------------------------------------------------------
  # Commande No :  0037            Concept de type : vect_elem_depl_r
  # ------------------------------------------------------------------------------------------
  F_EXTR = EXTR_TABLE(TABLE=F_TABLE,
                      TYPE_RESU='VECT_ELEM_DEPL_R',
                      NOM_PARA='NOM_SD',
                      FILTRE=_F(NOM_PARA='NOM_OBJET',
                                VALE_K='FORC_NODA_ELEM',
                                CRITERE='RELATIF',
                                CRIT_COMP='EQ',
                                PRECISION=1.E-3,),
                      )

  # Mémoire (Mo) :   713.24 /   706.88 /    53.42 /    40.65 (VmPeak / VmSize / Optimum / Minimum)
  # Fin commande No : 0037   user+syst:        0.01s (syst:        0.01s, elaps:        0.00s)
  # ------------------------------------------------------------------------------------------

  # ------------------------------------------------------------------------------------------
  # Commande No :  0038            Concept de type : cham_no_sdaster
  # ------------------------------------------------------------------------------------------
  F_lin = ASSE_VECTEUR(NUME_DDL=nddl,
                       VECT_ELEM=(F_EXTR, ),)

#2      Calculs elementaires et assemblages               CPU (USER+SYST/SYST/ELAPS):      0.00      0.00      0.00
  # Mémoire (Mo) :   713.24 /   706.88 /    53.42 /    40.65 (VmPeak / VmSize / Optimum / Minimum)
  # Fin commande No : 0038   user+syst:        0.00s (syst:        0.00s, elaps:        0.00s)
  # ------------------------------------------------------------------------------------------

  # ------------------------------------------------------------------------------------------
  # Commande No :  0039            Concept de type : -
  # ------------------------------------------------------------------------------------------
  DETRUIRE(CONCEPT=_F(NOM=(F_TABLE, ),),
           INFO=1,)

  # Mémoire (Mo) :   713.24 /   706.88 /    53.42 /    40.65 (VmPeak / VmSize / Optimum / Minimum)
  # Fin commande No : 0039   user+syst:        0.00s (syst:        0.00s, elaps:        0.00s)
  # ------------------------------------------------------------------------------------------

  # ------------------------------------------------------------------------------------------
  # Commande No :  0040            Concept de type : -
  # ------------------------------------------------------------------------------------------
  DETRUIRE(CONCEPT=_F(NOM=(F_EXTR, ),),
           INFO=1,)

  # Mémoire (Mo) :   713.24 /   706.88 /    53.42 /    40.65 (VmPeak / VmSize / Optimum / Minimum)
  # Fin commande No : 0040   user+syst:        0.01s (syst:        0.01s, elaps:        0.01s)
  # ------------------------------------------------------------------------------------------

  # ------------------------------------------------------------------------------------------
  # Commande No :  0041            Concept de type : table_container
  # ------------------------------------------------------------------------------------------
  F_TABLE = CALCUL(INFO=1,
                   OPTION=('COMPORTEMENT', 'FORC_INTE_ELEM', 'MATR_TANG_ELEM', 'FORC_NODA_ELEM'),
                   SIGM=SIGP,
                   DEPL=U,
                   INCR_DEPL=DU_p,
                   CHAM_MATER=fieldmat,
                   VARI=VARIP,
                   MODELE=model,
                   EXCIT=_F(CHARGE=BC,
                            TYPE_CHARGE='FIXE_CSTE',),
                   COMPORTEMENT=_F(DEFORMATION='GROT_GDEP',
                                   RELATION='ELAS',
                                   ITER_INTE_MAXI=20,
                                   RESI_INTE_RELA=1.E-06,
                                   ITER_INTE_PAS=0,
                                   RESI_CPLAN_RELA=1.E-06,
                                   PARM_THETA=1.0,
                                   SYME_MATR_TANG='OUI',
                                   ITER_CPLAN_MAXI=1,
                                   PARM_ALPHA=1.0,),
                   INCREMENT=_F(LIST_INST=LIST,
                                NUME_ORDRE=1,),
                   )


 Sur certaines mailles, la modélisation est incompatible avec le comportement.
 Une erreur fatale pourrait suivre se message.

Liste des comportements
Affecté sur 532 éléments
  Relation                             : ELAS
  Déformation                          : GROT_GDEP
  Nombre total de variables internes   : 1
         V1 : VIDE
   
   !-----------------------------------------------------------------------------------------------------------------------------------!
   ! <A> <COMPOR2_23>                                                                                                                  !
   !                                                                                                                                   !
   !    Il y a incohérence entre le champ des variables internes et le comportement affecté sur les mailles (si vous ne l'avez pas     !
   ! précisé, on suppose par défaut                                                                                                    !
   ! que le comportement est élastique).                                                                                               !
   !    On ne peut pas modifier le champ des variables internes de manière automatique.                                                !
   !    Mais comme vous semblez être dans un cas autorisé (voir message précédent), la reprise de ce champ dans un calcul non-linéaire !
   ! devrait bien se passer (correction automatique dans l'opérateur).                                                                 !
   !                                                                                                                                   !
   !                                                                                                                                   !
   ! Ceci est une alarme. Si vous ne comprenez pas le sens de cette                                                                    !
   ! alarme, vous pouvez obtenir des résultats inattendus !                                                                            !
   !-----------------------------------------------------------------------------------------------------------------------------------!
   
#2      Calculs elementaires et assemblages               CPU (USER+SYST/SYST/ELAPS):      0.13      0.03      0.09
  # Mémoire (Mo) :   714.67 /   708.29 /    54.77 /    40.65 (VmPeak / VmSize / Optimum / Minimum)
  # Fin commande No : 0041   user+syst:        0.20s (syst:        0.05s, elaps:        0.15s)
  # ------------------------------------------------------------------------------------------

  # ------------------------------------------------------------------------------------------
  # Commande No :  0042            Concept de type : vect_elem_depl_r
  # ------------------------------------------------------------------------------------------
  F_EXTR = EXTR_TABLE(TABLE=F_TABLE,
                      TYPE_RESU='VECT_ELEM_DEPL_R',
                      NOM_PARA='NOM_SD',
                      FILTRE=_F(NOM_PARA='NOM_OBJET',
                                VALE_K='FORC_NODA_ELEM',
                                CRITERE='RELATIF',
                                CRIT_COMP='EQ',
                                PRECISION=1.E-3,),
                      )

  # Mémoire (Mo) :   714.67 /   708.29 /    54.77 /    40.65 (VmPeak / VmSize / Optimum / Minimum)
  # Fin commande No : 0042   user+syst:        0.00s (syst:        0.00s, elaps:        0.00s)
  # ------------------------------------------------------------------------------------------

  # ------------------------------------------------------------------------------------------
  # Commande No :  0043            Concept de type : cham_no_sdaster
  # ------------------------------------------------------------------------------------------
  F_tot = ASSE_VECTEUR(NUME_DDL=nddl,
                       VECT_ELEM=(F_EXTR, ),)

#2      Calculs elementaires et assemblages               CPU (USER+SYST/SYST/ELAPS):      0.00      0.00      0.00
  # Mémoire (Mo) :   714.67 /   708.29 /    54.77 /    40.65 (VmPeak / VmSize / Optimum / Minimum)
  # Fin commande No : 0043   user+syst:        0.00s (syst:        0.00s, elaps:        0.00s)
  # ------------------------------------------------------------------------------------------

  # ------------------------------------------------------------------------------------------
  # Commande No :  0044            Concept de type : -
  # ------------------------------------------------------------------------------------------
  DETRUIRE(CONCEPT=_F(NOM=(F_TABLE, ),),
           INFO=1,)

  # Mémoire (Mo) :   714.67 /   708.29 /    54.77 /    40.65 (VmPeak / VmSize / Optimum / Minimum)
  # Fin commande No : 0044   user+syst:        0.00s (syst:        0.00s, elaps:        0.01s)
  # ------------------------------------------------------------------------------------------

  # ------------------------------------------------------------------------------------------
  # Commande No :  0045            Concept de type : -
  # ------------------------------------------------------------------------------------------
  DETRUIRE(CONCEPT=_F(NOM=(F_EXTR, ),),
           INFO=1,)

  # Mémoire (Mo) :   714.67 /   708.29 /    54.77 /    40.65 (VmPeak / VmSize / Optimum / Minimum)
  # Fin commande No : 0045   user+syst:        0.00s (syst:        0.00s, elaps:        0.00s)
  # ------------------------------------------------------------------------------------------

  # ------------------------------------------------------------------------------------------
  # Commande No :  0046            Concept de type : cham_no_sdaster
  # ------------------------------------------------------------------------------------------
  F_NL_p = CREA_CHAMP(TYPE_CHAM='NOEU_DEPL_R',
                      OPERATION='COMB',
                      COMB=(_F(CHAM_GD=F_lin,
                               COEF_R=-1,),
                            _F(CHAM_GD=F_tot,
                               COEF_R=1,),
                            ),
                      INFO=1,)

  # Mémoire (Mo) :   714.67 /   708.29 /    54.77 /    40.65 (VmPeak / VmSize / Optimum / Minimum)
  # Fin commande No : 0046   user+syst:        0.00s (syst:        0.00s, elaps:        0.01s)
  # ------------------------------------------------------------------------------------------

  # ------------------------------------------------------------------------------------------
  # Commande No :  0047            Concept de type : -
  # ------------------------------------------------------------------------------------------
  DETRUIRE(CONCEPT=_F(NOM=(DU_p, ),),
           INFO=1,)

  # Mémoire (Mo) :   714.67 /   708.29 /    54.77 /    40.65 (VmPeak / VmSize / Optimum / Minimum)
  # Fin commande No : 0047   user+syst:        0.00s (syst:        0.00s, elaps:        0.00s)
  # ------------------------------------------------------------------------------------------

  # ------------------------------------------------------------------------------------------
  # Commande No :  0048            Concept de type : -
  # ------------------------------------------------------------------------------------------
  DETRUIRE(CONCEPT=_F(NOM=(F_lin, ),),
           INFO=1,)

  # Mémoire (Mo) :   714.67 /   708.29 /    54.77 /    40.65 (VmPeak / VmSize / Optimum / Minimum)
  # Fin commande No : 0048   user+syst:        0.00s (syst:        0.00s, elaps:        0.00s)
  # ------------------------------------------------------------------------------------------

  # ------------------------------------------------------------------------------------------
  # Commande No :  0049            Concept de type : -
  # ------------------------------------------------------------------------------------------
  DETRUIRE(CONCEPT=_F(NOM=(F_tot, ),),
           INFO=1,)

  # Mémoire (Mo) :   714.67 /   708.29 /    54.77 /    40.65 (VmPeak / VmSize / Optimum / Minimum)
  # Fin commande No : 0049   user+syst:        0.00s (syst:        0.00s, elaps:        0.00s)
  # ------------------------------------------------------------------------------------------

  # ------------------------------------------------------------------------------------------
  # Commande No :  0050            Concept de type : table_container
  # ------------------------------------------------------------------------------------------
  F_TABLE = CALCUL(INFO=1,
                   OPTION=('COMPORTEMENT', 'FORC_INTE_ELEM', 'MATR_TANG_ELEM', 'FORC_NODA_ELEM'),
                   SIGM=SIGP,
                   DEPL=U,
                   INCR_DEPL=DU_m,
                   CHAM_MATER=fieldmat,
                   VARI=VARIP,
                   MODELE=model,
                   EXCIT=_F(CHARGE=BC,
                            TYPE_CHARGE='FIXE_CSTE',),
                   COMPORTEMENT=_F(DEFORMATION='PETIT',
                                   RELATION='ELAS',
                                   ITER_INTE_MAXI=20,
                                   RESI_INTE_RELA=1.E-06,
                                   ITER_INTE_PAS=0,
                                   RESI_CPLAN_RELA=1.E-06,
                                   PARM_THETA=1.0,
                                   SYME_MATR_TANG='OUI',
                                   ITER_CPLAN_MAXI=1,
                                   PARM_ALPHA=1.0,),
                   INCREMENT=_F(LIST_INST=LIST,
                                NUME_ORDRE=1,),
                   )


 Sur certaines mailles, la modélisation est incompatible avec le comportement.
 Une erreur fatale pourrait suivre se message.

Liste des comportements
Affecté sur 532 éléments
  Relation                             : ELAS
  Déformation                          : PETIT
  Nombre total de variables internes   : 1
         V1 : VIDE
   
   !-----------------------------------------------------------------------------------------------------------------------------------!
   ! <A> <COMPOR2_23>                                                                                                                  !
   !                                                                                                                                   !
   !    Il y a incohérence entre le champ des variables internes et le comportement affecté sur les mailles (si vous ne l'avez pas     !
   ! précisé, on suppose par défaut                                                                                                    !
   ! que le comportement est élastique).                                                                                               !
   !    On ne peut pas modifier le champ des variables internes de manière automatique.                                                !
   !    Mais comme vous semblez être dans un cas autorisé (voir message précédent), la reprise de ce champ dans un calcul non-linéaire !
   ! devrait bien se passer (correction automatique dans l'opérateur).                                                                 !
   !                                                                                                                                   !
   !                                                                                                                                   !
   ! Ceci est une alarme. Si vous ne comprenez pas le sens de cette                                                                    !
   ! alarme, vous pouvez obtenir des résultats inattendus !                                                                            !
   !-----------------------------------------------------------------------------------------------------------------------------------!
   
#2      Calculs elementaires et assemblages               CPU (USER+SYST/SYST/ELAPS):      0.12      0.04      0.06
[...]
 * CALCUL                   :       0.10 :       0.06 :       0.16 :       0.11 *
 * EXTR_TABLE               :       0.01 :       0.00 :       0.01 :       0.00 *
 * ASSE_VECTEUR             :       0.00 :       0.00 :       0.00 :       0.00 *
 * DETRUIRE                 :       0.00 :       0.00 :       0.00 :       0.00 *
 * DETRUIRE                 :       0.00 :       0.01 :       0.01 :       0.00 *
 * CALCUL                   :       0.14 :       0.08 :       0.22 :       0.13 *
 * EXTR_TABLE               :       0.00 :       0.00 :       0.00 :       0.00 *
 * ASSE_VECTEUR             :       0.00 :       0.00 :       0.00 :       0.01 *
 * DETRUIRE                 :       0.00 :       0.00 :       0.00 :       0.00 *
 * DETRUIRE                 :       0.00 :       0.00 :       0.00 :       0.00 *
 * CREA_CHAMP               :       0.00 :       0.00 :       0.00 :       0.00 *
 * DETRUIRE                 :       0.00 :       0.00 :       0.00 :       0.00 *
 * DETRUIRE                 :       0.01 :       0.00 :       0.01 :       0.00 *
 * DETRUIRE                 :       0.00 :       0.00 :       0.00 :       0.00 *
 * CREA_CHAMP               :       0.01 :       0.00 :       0.01 :       0.01 *
 * CREA_CHAMP               :       0.01 :       0.00 :       0.01 :       0.00 *
 * CREA_CHAMP               :       0.01 :       0.00 :       0.01 :       0.01 *
 * DETRUIRE                 :       0.00 :       0.00 :       0.00 :       0.00 *
 * DETRUIRE                 :       0.00 :       0.00 :       0.00 :       0.00 *
 * DETRUIRE                 :       0.01 :       0.00 :       0.01 :       0.00 *
 * CREA_CHAMP               :       0.01 :       0.00 :       0.01 :       0.02 *
 * CALCUL                   :       0.13 :       0.03 :       0.16 :       0.14 *
 * EXTR_TABLE               :       0.00 :       0.00 :       0.00 :       0.01 *
 * ASSE_VECTEUR             :       0.00 :       0.00 :       0.00 :       0.00 *
 * DETRUIRE                 :       0.00 :       0.00 :       0.00 :       0.00 *
 * DETRUIRE                 :       0.01 :       0.00 :       0.01 :       0.01 *
 * CALCUL                   :       0.16 :       0.05 :       0.21 :       0.21 *
 * EXTR_TABLE               :       0.00 :       0.00 :       0.00 :       0.00 *
 * ASSE_VECTEUR             :       0.00 :       0.00 :       0.00 :       0.01 *
 * DETRUIRE                 :       0.01 :       0.00 :       0.01 :       0.00 *
 * DETRUIRE                 :       0.00 :       0.00 :       0.00 :       0.00 *
 * CREA_CHAMP               :       0.01 :       0.00 :       0.01 :       0.00 *
 * DETRUIRE                 :       0.00 :       0.00 :       0.00 :       0.00 *
 * DETRUIRE                 :       0.00 :       0.00 :       0.00 :       0.00 *
 * DETRUIRE                 :       0.00 :       0.00 :       0.00 :       0.01 *
 * CREA_CHAMP               :       0.01 :       0.00 :       0.01 :       0.01 *
 * DETRUIRE                 :       0.01 :       0.00 :       0.01 :       0.00 *
 * COMB_MATR_ASSE           :       0.00 :       0.00 :       0.00 :       0.00 *
 * FACTORISER               :       0.06 :       0.03 :       0.09 :       0.09 *
 * RESOUDRE                 :       0.04 :       0.02 :       0.06 :       0.05 *
 * CREA_CHAMP               :       0.01 :       0.00 :       0.01 :       0.01 *
 * DETRUIRE                 :       0.01 :       0.00 :       0.01 :       0.00 *
 * DETRUIRE                 :       0.00 :       0.00 :       0.00 :       0.01 *
 * COMB_MATR_ASSE           :       0.01 :       0.00 :       0.01 :       0.01 *
 * FACTORISER               :       0.06 :       0.03 :       0.09 :       0.08 *
 * RESOUDRE                 :       0.05 :       0.01 :       0.06 :       0.05 *
 * CREA_CHAMP               :       0.01 :       0.00 :       0.01 :       0.01 *
 * DETRUIRE                 :       0.00 :       0.00 :       0.00 :       0.00 *
 * DETRUIRE                 :       0.00 :       0.00 :       0.00 :       0.00 *
 * COMB_MATR_ASSE           :       0.01 :       0.01 :       0.02 :       0.01 *
 * FACTORISER               :       0.05 :       0.03 :       0.08 :       0.09 *
 * RESOUDRE                 :       0.04 :       0.01 :       0.05 :       0.06 *
 * CREA_CHAMP               :       0.00 :       0.00 :       0.00 :       0.01 *
 * DETRUIRE                 :       0.00 :       0.00 :       0.00 :       0.00 *
 * DETRUIRE                 :       0.01 :       0.00 :       0.01 :       0.00 *
 * COMB_MATR_ASSE           :       0.01 :       0.00 :       0.01 :       0.01 *
 * FACTORISER               :       0.05 :       0.03 :       0.08 :       0.08 *
 * RESOUDRE                 :       0.05 :       0.01 :       0.06 :       0.06 *
 * CREA_CHAMP               :       0.01 :       0.00 :       0.01 :       0.00 *
 * DETRUIRE                 :       0.00 :       0.00 :       0.00 :       0.00 *
 * DETRUIRE                 :       0.00 :       0.00 :       0.00 :       0.00 *
 * COMB_MATR_ASSE           :       0.01 :       0.00 :       0.01 :       0.01 *
 * FACTORISER               :       0.06 :       0.01 :       0.07 :       0.06 *
 * RESOUDRE                 :       0.03 :       0.00 :       0.03 :       0.02 *
 * CREA_CHAMP               :       0.00 :       0.00 :       0.00 :       0.01 *
 * DETRUIRE                 :       0.00 :       0.00 :       0.00 :       0.00 *
 * DETRUIRE                 :       0.00 :       0.00 :       0.00 :       0.00 *
 * COMB_MATR_ASSE           :       0.00 :       0.00 :       0.00 :       0.01 *
 * FACTORISER               :       0.05 :       0.04 :       0.09 :       0.06 *
 * RESOUDRE                 :       0.04 :       0.00 :       0.04 :       0.04 *
 * CREA_CHAMP               :       0.01 :       0.00 :       0.01 :       0.00 *
 * DETRUIRE                 :       0.00 :       0.00 :       0.00 :       0.00 *
 * DETRUIRE                 :       0.00 :       0.00 :       0.00 :       0.00 *
 * CREA_CHAMP               :       0.01 :       0.00 :       0.01 :       0.01 *
 * CREA_CHAMP               :       0.01 :       0.00 :       0.01 :       0.00 *
 * CALCUL                   :       0.16 :       0.05 :       0.21 :       0.19 *
 * EXTR_TABLE               :       0.00 :       0.00 :       0.00 :       0.00 *
 * ASSE_VECTEUR             :       0.00 :       0.00 :       0.00 :       0.00 *
 * DETRUIRE                 :       0.00 :       0.00 :       0.00 :       0.01 *
 * DETRUIRE                 :       0.00 :       0.00 :       0.00 :       0.00 *
 * CALCUL                   :       0.15 :       0.02 :       0.17 :       0.19 *
 * EXTR_TABLE               :       0.00 :       0.00 :       0.00 :       0.00 *
 * ASSE_VECTEUR             :       0.00 :       0.00 :       0.00 :       0.00 *
 * DETRUIRE                 :       0.00 :       0.00 :       0.00 :       0.00 *
 * DETRUIRE                 :       0.00 :       0.00 :       0.00 :       0.00 *
 * CREA_CHAMP               :       0.00 :       0.00 :       0.00 :       0.00 *
 * DETRUIRE                 :       0.00 :       0.00 :       0.00 :       0.00 *
 * DETRUIRE                 :       0.00 :       0.00 :       0.00 :       0.00 *
 * DETRUIRE                 :       0.01 :       0.00 :       0.01 :       0.00 *
 * CALCUL                   :       0.12 :       0.09 :       0.21 :       0.13 *
 * EXTR_TABLE               :       0.00 :       0.00 :       0.00 :       0.00 *
 * ASSE_VECTEUR             :       0.00 :       0.00 :       0.00 :       0.01 *
 * DETRUIRE                 :       0.00 :       0.01 :       0.01 :       0.00 *
 * DETRUIRE                 :       0.00 :       0.00 :       0.00 :       0.00 *
 * CALCUL                   :       0.14 :       0.03 :       0.17 :       0.11 *
 * EXTR_TABLE               :       0.00 :       0.00 :       0.00 :       0.01 *
 * ASSE_VECTEUR             :       0.00 :       0.00 :       0.00 :       0.00 *
 * DETRUIRE                 :       0.01 :       0.00 :       0.01 :       0.00 *
 * DETRUIRE                 :       0.00 :       0.00 :       0.00 :       0.01 *
 * CREA_CHAMP               :       0.01 :       0.00 :       0.01 :       0.00 *
 * DETRUIRE                 :       0.00 :       0.00 :       0.00 :       0.00 *
 * DETRUIRE                 :       0.00 :       0.00 :       0.00 :       0.00 *
 * DETRUIRE                 :       0.01 :       0.00 :       0.01 :       0.00 *
 * CREA_CHAMP               :       0.00 :       0.00 :       0.00 :       0.01 *
 * DETRUIRE                 :       0.00 :       0.01 :       0.01 :       0.01 *
 * DETRUIRE                 :       0.00 :       0.00 :       0.00 :       0.00 *
 * CREA_CHAMP               :       0.00 :       0.00 :       0.00 :       0.00 *
 * CREA_CHAMP               :       0.00 :       0.00 :       0.00 :       0.00 *
 * CALCUL                   :       0.12 :       0.01 :       0.13 :       0.14 *
 * EXTR_TABLE               :       0.01 :       0.01 :       0.02 :       0.01 *
 * ASSE_VECTEUR             :       0.00 :       0.00 :       0.00 :       0.00 *
 * DETRUIRE                 :       0.00 :       0.00 :       0.00 :       0.00 *
 * DETRUIRE                 :       0.01 :       0.00 :       0.01 :       0.00 *
 * CALCUL                   :       0.16 :       0.04 :       0.20 :       0.16 *
 * EXTR_TABLE               :       0.00 :       0.00 :       0.00 :       0.02 *
 * ASSE_VECTEUR             :       0.00 :       0.00 :       0.00 :       0.01 *
 * DETRUIRE                 :       0.00 :       0.00 :       0.00 :       0.00 *
 * DETRUIRE                 :       0.00 :       0.00 :       0.00 :       0.00 *
 * CREA_CHAMP               :       0.01 :       0.00 :       0.01 :       0.00 *
 * DETRUIRE                 :       0.00 :       0.00 :       0.00 :       0.00 *
 * DETRUIRE                 :       0.00 :       0.00 :       0.00 :       0.01 *
 * DETRUIRE                 :       0.00 :       0.00 :       0.00 :       0.00 *
 * CALCUL                   :       0.12 :       0.04 :       0.16 :       0.11 *
 * EXTR_TABLE               :       0.00 :       0.00 :       0.00 :       0.00 *
 * ASSE_VECTEUR             :       0.01 :       0.00 :       0.01 :       0.00 *
 * DETRUIRE                 :       0.00 :       0.00 :       0.00 :       0.00 *
 * DETRUIRE                 :       0.00 :       0.00 :       0.00 :       0.00 *
 * CALCUL                   :       0.15 :       0.08 :       0.23 :       0.13 *
 * EXTR_TABLE               :       0.00 :       0.00 :       0.00 :       0.00 *
 * ASSE_VECTEUR             :       0.00 :       0.00 :       0.00 :       0.00 *
 * DETRUIRE                 :       0.00 :       0.00 :       0.00 :       0.00 *
 * DETRUIRE                 :       0.00 :       0.00 :       0.00 :       0.00 *
 * CREA_CHAMP               :       0.00 :       0.00 :       0.00 :       0.01 *
 * DETRUIRE                 :       0.00 :       0.00 :       0.00 :       0.00 *
 * DETRUIRE                 :       0.01 :       0.00 :       0.01 :       0.00 *
 * DETRUIRE                 :       0.00 :       0.00 :       0.00 :       0.00 *
 * CREA_CHAMP               :       0.00 :       0.00 :       0.00 :       0.00 *
 * DETRUIRE                 :       0.00 :       0.00 :       0.00 :       0.00 *
 * DETRUIRE                 :       0.00 :       0.00 :       0.00 :       0.00 *
 * CREA_CHAMP               :       0.01 :       0.00 :       0.01 :       0.00 *
 * CREA_CHAMP               :       0.00 :       0.00 :       0.00 :       0.00 *
 * CALCUL                   :       0.13 :       0.06 :       0.19 :       0.12 *
 * EXTR_TABLE               :       0.00 :       0.00 :       0.00 :       0.00 *
 * ASSE_VECTEUR             :       0.00 :       0.00 :       0.00 :       0.00 *
 * DETRUIRE                 :       0.00 :       0.00 :       0.00 :       0.01 *
 * DETRUIRE                 :       0.00 :       0.01 :       0.01 :       0.00 *
 * CALCUL                   :       0.16 :       0.07 :       0.23 :       0.15 *
 * EXTR_TABLE               :       0.00 :       0.00 :       0.00 :       0.01 *
 * ASSE_VECTEUR             :       0.01 :       0.00 :       0.01 :       0.00 *
 * DETRUIRE                 :       0.00 :       0.00 :       0.00 :       0.00 *
 * DETRUIRE                 :       0.00 :       0.00 :       0.00 :       0.01 *
 * CREA_CHAMP               :       0.00 :       0.00 :       0.00 :       0.00 *
 * DETRUIRE                 :       0.00 :       0.00 :       0.00 :       0.01 *
 * DETRUIRE                 :       0.00 :       0.00 :       0.00 :       0.00 *
 * DETRUIRE                 :       0.01 :       0.00 :       0.01 :       0.00 *
 * CALCUL                   :       0.12 :       0.04 :       0.16 :       0.11 *
 * EXTR_TABLE               :       0.00 :       0.01 :       0.01 :       0.00 *
 * ASSE_VECTEUR             :       0.01 :       0.00 :       0.01 :       0.00 *
 * DETRUIRE                 :       0.00 :       0.00 :       0.00 :       0.00 *
 * DETRUIRE                 :       0.00 :       0.00 :       0.00 :       0.00 *
 * CALCUL                   :       0.16 :       0.09 :       0.25 :       0.14 *
 * EXTR_TABLE               :       0.00 :       0.00 :       0.00 :       0.00 *
 * ASSE_VECTEUR             :       0.00 :       0.00 :       0.00 :       0.01 *
 * DETRUIRE                 :       0.00 :       0.00 :       0.00 :       0.00 *
 * DETRUIRE                 :       0.00 :       0.00 :       0.00 :       0.00 *
 * CREA_CHAMP               :       0.00 :       0.00 :       0.00 :       0.01 *
 * DETRUIRE                 :       0.01 :       0.00 :       0.01 :       0.00 *
 * DETRUIRE                 :       0.00 :       0.00 :       0.00 :       0.00 *
 * DETRUIRE                 :       0.00 :       0.00 :       0.00 :       0.00 *
 * CREA_CHAMP               :       0.01 :       0.00 :       0.01 :       0.00 *
 * DETRUIRE                 :       0.00 :       0.00 :       0.00 :       0.00 *
 * DETRUIRE                 :       0.00 :       0.00 :       0.00 :       0.00 *
 * CREA_CHAMP               :       0.00 :       0.00 :       0.00 :       0.01 *
 * CREA_CHAMP               :       0.00 :       0.00 :       0.00 :       0.00 *
 * CALCUL                   :       0.08 :       0.07 :       0.15 :       0.10 *
 * EXTR_TABLE               :       0.00 :       0.00 :       0.00 :       0.00 *
 * ASSE_VECTEUR             :       0.00 :       0.00 :       0.00 :       0.00 *
 * DETRUIRE                 :       0.00 :       0.00 :       0.00 :       0.00 *
 * DETRUIRE                 :       0.00 :       0.01 :       0.01 :       0.00 *
 * CALCUL                   :       0.14 :       0.06 :       0.20 :       0.11 *
 * EXTR_TABLE               :       0.00 :       0.00 :       0.00 :       0.00 *
 * ASSE_VECTEUR             :       0.01 :       0.00 :       0.01 :       0.00 *
 * DETRUIRE                 :       0.00 :       0.00 :       0.00 :       0.01 *
 * DETRUIRE                 :       0.00 :       0.00 :       0.00 :       0.00 *
 * CREA_CHAMP               :       0.01 :       0.00 :       0.01 :       0.00 *
 * DETRUIRE                 :       0.00 :       0.00 :       0.00 :       0.01 *
 * DETRUIRE                 :       0.00 :       0.00 :       0.00 :       0.00 *
 * DETRUIRE                 :       0.00 :       0.00 :       0.00 :       0.00 *
 * CALCUL                   :       0.11 :       0.03 :       0.14 :       0.09 *
 * EXTR_TABLE               :       0.00 :       0.00 :       0.00 :       0.00 *
 * ASSE_VECTEUR             :       0.01 :       0.00 :       0.01 :       0.00 *
 * DETRUIRE                 :       0.00 :       0.01 :       0.01 :       0.00 *
 * DETRUIRE                 :       0.00 :       0.00 :       0.00 :       0.00 *
 * CALCUL                   :       0.14 :       0.07 :       0.21 :       0.11 *
 * EXTR_TABLE               :       0.01 :       0.00 :       0.01 :       0.00 *
 * ASSE_VECTEUR             :       0.00 :       0.00 :       0.00 :       0.00 *
 * DETRUIRE                 :       0.00 :       0.00 :       0.00 :       0.00 *
 * DETRUIRE                 :       0.00 :       0.01 :       0.01 :       0.00 *
 * CREA_CHAMP               :       0.00 :       0.00 :       0.00 :       0.00 *
 * DETRUIRE                 :       0.00 :       0.00 :       0.00 :       0.00 *
 * DETRUIRE                 :       0.00 :       0.00 :       0.00 :       0.00 *
 * DETRUIRE                 :       0.00 :       0.00 :       0.00 :       0.01 *
 * CREA_CHAMP               :       0.01 :       0.00 :       0.01 :       0.00 *
 * DETRUIRE                 :       0.00 :       0.00 :       0.00 :       0.00 *
 * DETRUIRE                 :       0.00 :       0.00 :       0.00 :       0.01 *
 * CREA_CHAMP               :       0.01 :       0.00 :       0.01 :       0.00 *
 * CREA_CHAMP               :       0.01 :       0.00 :       0.01 :       0.00 *
 * CALCUL                   :       0.12 :       0.05 :       0.17 :       0.10 *
 * EXTR_TABLE               :       0.00 :       0.00 :       0.00 :       0.00 *
 * ASSE_VECTEUR             :       0.00 :       0.01 :       0.01 :       0.00 *
 * DETRUIRE                 :       0.01 :       0.00 :       0.01 :       0.00 *
 * DETRUIRE                 :       0.00 :       0.00 :       0.00 :       0.00 *
 * CALCUL                   :       0.13 :       0.09 :       0.22 :       0.11 *
 * EXTR_TABLE               :       0.00 :       0.00 :       0.00 :       0.00 *
 * ASSE_VECTEUR             :       0.00 :       0.00 :       0.00 :       0.00 *
 * DETRUIRE                 :       0.00 :       0.00 :       0.00 :       0.00 *
 * DETRUIRE                 :       0.00 :       0.00 :       0.00 :       0.00 *
 * CREA_CHAMP               :       0.00 :       0.00 :       0.00 :       0.01 *
 * DETRUIRE                 :       0.00 :       0.00 :       0.00 :       0.00 *
 * DETRUIRE                 :       0.00 :       0.00 :       0.00 :       0.00 *
 * DETRUIRE                 :       0.00 :       0.00 :       0.00 :       0.00 *
 * CALCUL                   :       0.10 :       0.07 :       0.17 :       0.10 *
 * EXTR_TABLE               :       0.00 :       0.00 :       0.00 :       0.00 *
 * ASSE_VECTEUR             :       0.00 :       0.01 :       0.01 :       0.01 *
 * DETRUIRE                 :       0.00 :       0.00 :       0.00 :       0.00 *
 * DETRUIRE                 :       0.00 :       0.00 :       0.00 :       0.00 *
 * CALCUL                   :       0.13 :       0.10 :       0.23 :       0.12 *
 * EXTR_TABLE               :       0.00 :       0.00 :       0.00 :       0.00 *
 * ASSE_VECTEUR             :       0.00 :       0.00 :       0.00 :       0.00 *
 * DETRUIRE                 :       0.00 :       0.00 :       0.00 :       0.00 *
 * DETRUIRE                 :       0.00 :       0.00 :       0.00 :       0.01 *
 * CREA_CHAMP               :       0.01 :       0.00 :       0.01 :       0.00 *
 * DETRUIRE                 :       0.00 :       0.00 :       0.00 :       0.00 *
 * DETRUIRE                 :       0.00 :       0.00 :       0.00 :       0.00 *
 * DETRUIRE                 :       0.00 :       0.00 :       0.00 :       0.00 *
 * CREA_CHAMP               :       0.00 :       0.00 :       0.00 :       0.00 *
 * DETRUIRE                 :       0.00 :       0.00 :       0.00 :       0.00 *
 * > 500 commandes...       :      18.50 :       8.40 :      26.90 :      16.93 *
 *  . part Superviseur      :       2.28 :       0.59 :       2.87 :       2.58 *
 *  . part Fortran          :       8.06 :       3.71 :      11.77 :       7.81 *
 ********************************************************************************
 * TOTAL_JOB                :      28.85 :      12.71 :      41.56 :      27.31 *
 ********************************************************************************

--- Fin de l'exécution
EXECUTION_CODE_ASTER_EXIT_18525-me-av3116g3=0
